geometry optimzed in LAMMPS
_audit_creation_date              2020-11-30 
_audit_creation_method            'lammps2cif' 
_symmetry_space_group_name_H-M    'P1' 
_symmetry_Int_Tables_number       1 
_symmetry_cell_setting            triclinic 
loop_ 
_symmetry_equiv_pos_as_xyz 
  x,y,z 
_cell_length_a                    32.57440201 
_cell_length_b                    32.58143645529683 
_cell_length_c                    32.65918511849868 
_cell_angle_alpha                 89.94601588702072 
_cell_angle_beta                  90.330462433078 
_cell_angle_gamma                 89.76568910838878 
loop_ 
_atom_site_label 
_atom_site_type_symbol 
_atom_site_fract_x 
_atom_site_fract_y 
_atom_site_fract_z 
_atom_site_charge 
N1          N  0.02598050  0.26518119  0.26314744    -0.02900
C2          C  0.02329581  0.22373371  0.26681211    -0.00300
C3          C  0.02987589  0.20449183  0.22975156    -0.23200
C4          C  0.03564411  0.23478446  0.20166835    -0.23400
C5          C  0.03239981  0.27132315  0.22264811    -0.00400
H6          H  0.02855006  0.17188530  0.22356015     0.13400
H7          H  0.03900782  0.23079577  0.16895446     0.13400
O8          O  0.00671631  0.42478761  0.37818628    -0.79500
O9          O  0.00805270  0.42941217  0.61227807    -0.81100
O10         O  0.07305118  0.38127737  0.49072052    -0.78100
O11         O  0.94010336  0.37676391  0.49558137    -0.76500
O12         O  0.88777765  0.42374991  0.48990436    -0.78300
O13         O  0.12185375  0.43184301  0.48787589    -0.79200
O14         O  0.00771961  0.37891347  0.56369988    -0.80500
O15         O  0.00404655  0.37545424  0.42804071    -0.80800
Eu16       Eu  0.00533103  0.41213230  0.49467331     2.39200
O17         O  0.96106077  0.45285130  0.53409170    -0.88300
O18         O  0.04669669  0.45444947  0.45358546    -0.91900
C19         C  0.00571741  0.38699549  0.39017424     1.02800
C20         C  0.00920109  0.39122055  0.60144751     1.02600
C21         C  0.11018220  0.39398713  0.48728204     1.02500
C22         C  0.90194722  0.38667438  0.49290045     1.00400
H23         H  0.06388642  0.43905487  0.55290132     0.30100
O24         O  0.04613589  0.45556771  0.53535896    -1.00700
H25         H  0.94597210  0.43375878  0.43399068     0.30200
O26         O  0.96254558  0.45188852  0.45164353    -1.03300
O27         O  0.99744320  0.56287676  0.60910429    -0.80500
O28         O  0.00599969  0.55886287  0.37198926    -0.80000
O29         O  0.11814900  0.50015162  0.56414806    -0.78500
O30         O  0.88336391  0.48845985  0.55866410    -0.81800
O31         O  0.88698597  0.49339671  0.42275871    -0.79600
O32         O  0.12014883  0.50249959  0.42620822    -0.78300
O33         O  0.06313940  0.61707267  0.48579427    -0.79800
O34         O  0.93469544  0.61213136  0.48783518    -0.81700
O35         O  0.11506324  0.56970041  0.48943631    -0.78500
O36         O  0.88511571  0.56242662  0.49106548    -0.81200
O37         O  0.06591181  0.50067462  0.61094334    -0.76900
O38         O  0.07022354  0.49554040  0.37695242    -0.76900
O39         O  0.93852878  0.49487803  0.37525982    -0.76600
O40         O  0.93439506  0.48968997  0.60687954    -0.80100
O41         O  0.00153951  0.61196052  0.55915055    -0.79500
O42         O  0.00043948  0.60835177  0.42119225    -0.77800
Eu43       Eu  0.00142515  0.49580006  0.57504496     2.39800
Eu44       Eu  0.00412085  0.49335950  0.41026261     2.39600
Eu45       Eu  0.08710218  0.49877836  0.49425499     2.38400
Eu46       Eu  0.91833777  0.49328078  0.49140404     2.39900
Eu47       Eu  0.00038702  0.57800475  0.49096483     2.39800
O48         O  0.96008251  0.53477081  0.44970669    -0.92200
O49         O  0.04290889  0.53893156  0.53459424    -0.91100
C50         C  0.99919907  0.60055062  0.59709038     1.02900
C51         C  0.00308858  0.59669341  0.38337178     1.01700
C52         C  0.10395381  0.50126112  0.60116979     1.01000
C53         C  0.89641300  0.48676921  0.59617075     1.03100
C54         C  0.90060262  0.49482071  0.38573231     1.02000
C55         C  0.10759628  0.50038841  0.38857978     1.00800
C56         C  0.10125071  0.60696979  0.48558304     1.00900
C57         C  0.89727480  0.60026784  0.48949131     1.03500
H58         H  0.05935923  0.55390234  0.43431837     0.30900
O59         O  0.04377375  0.53714829  0.45122815    -1.04400
H60         H  0.94105672  0.55350276  0.54987578     0.32900
O61         O  0.95881345  0.53646138  0.53285041    -1.07000
N62         N  0.00214302  0.72554154  0.72306548    -0.02900
C63         C  0.99725317  0.71841310  0.76394866    -0.00300
C64         C  0.99631374  0.75438038  0.78596911    -0.23200
C65         C  0.99941969  0.78531432  0.75820777    -0.23400
C66         C  0.00220415  0.76725533  0.71998721    -0.00400
H67         H  0.99396631  0.75760661  0.81886175     0.13400
H68         H  0.99943380  0.81781636  0.76507189     0.13400
N69         N  0.01922449  0.26343557  0.72654310    -0.02900
C70         C  0.01791888  0.22193449  0.72106770    -0.00300
C71         C  0.02584167  0.20111967  0.75703333    -0.23200
C72         C  0.03349675  0.22993294  0.78596947    -0.23400
C73         C  0.03027253  0.26764189  0.76689756    -0.00400
H74         H  0.02577465  0.16820770  0.76165914     0.13400
H75         H  0.03848712  0.22401752  0.81821946     0.13400
N76         N  0.97797817  0.72538720  0.26234337    -0.02900
C77         C  0.98008986  0.72205800  0.22068418    -0.00300
C78         C  0.97401703  0.75949214  0.20174272    -0.23200
C79         C  0.96887059  0.78738661  0.23186212    -0.23400
C80         C  0.97078028  0.76615918  0.26839161    -0.00400
H81         H  0.97550147  0.76610119  0.16928505     0.13400
H82         H  0.96692122  0.82030084  0.22767871     0.13400
O83         O  0.99862070  0.06487493  0.37451684    -0.79500
O84         O  0.00343005  0.06399329  0.60850371    -0.81100
O85         O  0.93377625  0.11525659  0.49239840    -0.78100
O86         O  0.06931626  0.11513311  0.48622328    -0.76500
O87         O  0.11996465  0.06622831  0.48888679    -0.78300
O88         O  0.88489410  0.06513435  0.49470762    -0.79200
O89         O  0.00559998  0.11301715  0.55814522    -0.80500
O90         O  0.99904597  0.11296588  0.42579341    -0.80800
Eu91       Eu  0.00214385  0.07983952  0.49159466     2.39200
O92         O  0.04523297  0.03890138  0.53331400    -0.88300
O93         O  0.96122560  0.03842557  0.44908752    -0.91900
C94         C  0.99828632  0.10223184  0.38801455     1.02800
C95         C  0.00473377  0.10156336  0.59582384     1.02600
C96         C  0.89591123  0.10326265  0.49433084     1.02500
C97         C  0.10748314  0.10399799  0.48617287     1.00400
H98         H  0.94452494  0.05503576  0.55078063     0.30100
O99         O  0.96154310  0.03820776  0.53368137    -1.00700
H100        H  0.05970922  0.05521029  0.43203354     0.30200
O101        O  0.04318230  0.03816731  0.44916473    -1.03300
O102        O  0.00544753  0.92778501  0.60749649    -0.80500
O103        O  0.99807701  0.92603427  0.37565459    -0.80000
O104        O  0.88654530  0.99315930  0.55591158    -0.78500
O105        O  0.12078419  0.99309754  0.55713841    -0.81800
O106        O  0.11886825  0.99681566  0.42441868    -0.79600
O107        O  0.88349825  0.00274647  0.42633043    -0.78300
O108        O  0.93636536  0.87956224  0.49289258    -0.79800
O109        O  0.07231031  0.88004249  0.48724506    -0.81700
O110        O  0.88648470  0.92920302  0.48929204    -0.78500
O111        O  0.12123445  0.93015780  0.48378415    -0.81200
O112        O  0.93567360  0.99338188  0.60656854    -0.76900
O113        O  0.93226269  0.99797096  0.37625788    -0.76900
O114        O  0.07024140  0.99493413  0.37359821    -0.76600
O115        O  0.07290816  0.99406498  0.60836233    -0.80100
O116        O  0.00383065  0.87901853  0.55703767    -0.79500
O117        O  0.00276508  0.87742577  0.42631530    -0.77800
Eu118      Eu  0.00438655  0.99624360  0.57490501     2.39800
Eu119      Eu  0.00187715  0.99612585  0.40685586     2.39600
Eu120      Eu  0.92021074  0.99736022  0.49085288     2.38400
Eu121      Eu  0.08624742  0.99755491  0.49076694     2.39900
Eu122      Eu  0.00398748  0.91369659  0.49104484     2.39800
O123        O  0.04450041  0.95570415  0.44921764    -0.92200
O124        O  0.96250075  0.95552121  0.53244525    -0.91100
C125        C  0.00486420  0.89021469  0.59477814     1.02900
C126        C  0.99910554  0.88835411  0.38869700     1.01700
C127        C  0.89815867  0.99236267  0.59342485     1.01000
C128        C  0.11019199  0.99175236  0.59504878     1.03100
C129        C  0.10790580  0.99585882  0.38655473     1.02000
C130        C  0.89467072  0.00037072  0.38880545     1.00800
C131        C  0.89845338  0.89131834  0.49129254     1.00900
C132        C  0.10988821  0.89214621  0.48356941     1.03500
H133        H  0.94348737  0.93781877  0.43267658     0.30900
O134        O  0.96102022  0.95479523  0.44921739    -1.04400
H135        H  0.06347321  0.93736591  0.54890218     0.32900
O136        O  0.04604465  0.95489035  0.53264633    -1.07000
N137        N  0.23184199  0.22925994  0.46553289    -0.02900
C138        C  0.22930415  0.26985821  0.45592584    -0.00300
C139        C  0.26780367  0.28596499  0.44835467    -0.23200
C140        C  0.29513707  0.25466651  0.45290553    -0.23400
C141        C  0.27247902  0.22078251  0.46363024    -0.00400
H142        H  0.27548219  0.31771056  0.44249899     0.13400
H143        H  0.32821085  0.25667364  0.45059636     0.13400
N144        N  0.76958612  0.22729418  0.51602085    -0.02900
C145        C  0.77853283  0.26786778  0.51903408    -0.00300
C146        C  0.74371884  0.29061505  0.52704788    -0.23200
C147        C  0.71201890  0.26361604  0.52899904    -0.23400
C148        C  0.72830989  0.22482312  0.52299298    -0.00400
H149        H  0.74126356  0.32374015  0.52829369     0.13400
H150        H  0.67998984  0.27195732  0.53148169     0.13400
N151        N  0.77265959  0.76710342  0.50204409    -0.02900
C152        C  0.73133113  0.77280478  0.50278281    -0.00300
C153        C  0.71143880  0.73737475  0.51441749    -0.23200
C154        C  0.74100363  0.70820499  0.52018236    -0.23400
C155        C  0.77806297  0.72678996  0.51221232    -0.00400
H156        H  0.67871087  0.73316097  0.51794459     0.13400
H157        H  0.73593616  0.67618894  0.52736803     0.13400
N158        N  0.23343976  0.76582790  0.46118077    -0.02900
C159        C  0.22793512  0.72482258  0.45547343    -0.00300
C160        C  0.26141505  0.70756294  0.43611197    -0.23200
C161        C  0.28901646  0.73840927  0.43019524    -0.23400
C162        C  0.27139733  0.77359132  0.44576543    -0.00400
H163        H  0.26575605  0.67560494  0.42818573     0.13400
H164        H  0.31997288  0.73497929  0.41878027     0.13400
N165        N  0.73152939  0.96838111  0.26525591    -0.02900
C166        C  0.77263907  0.96140330  0.26838783    -0.00300
C167        C  0.78902084  0.95339348  0.23019819    -0.23200
C168        C  0.75738673  0.95455110  0.20282044    -0.23400
C169        C  0.72277496  0.96415689  0.22481509    -0.00400
H170        H  0.82102639  0.95066247  0.22221450     0.13400
H171        H  0.75977750  0.95186462  0.16988267     0.13400
O172        O  0.42678174  0.11136291  0.49278531    -0.79500
O173        O  0.43421250  0.87757753  0.49042306    -0.81100
O174        O  0.38184207  0.99494390  0.42244013    -0.78100
O175        O  0.38367763  0.98986698  0.55896719    -0.76500
O176        O  0.43313372  0.99372955  0.60892229    -0.78300
O177        O  0.43180228  0.99883947  0.37354182    -0.79200
O178        O  0.38451568  0.92753040  0.48806080    -0.80500
O179        O  0.38012069  0.05877197  0.49041658    -0.80800
Eu180      Eu  0.41694334  0.99429562  0.49087890     2.39200
O181        O  0.45942254  0.95339420  0.53303207    -0.88300
O182        O  0.45766160  0.03748918  0.45035312    -0.91900
C183        C  0.38978722  0.09691689  0.49130239     1.02800
C184        C  0.39630626  0.88984849  0.48791722     1.02600
C185        C  0.39367233  0.99737998  0.38465006     1.02500
C186        C  0.39544637  0.99032857  0.59689016     1.00400
H187        H  0.44337835  0.93794579  0.43191253     0.30100
O188        O  0.46005839  0.95473210  0.44908440    -1.00700
H189        H  0.43951457  0.05374226  0.54971391     0.30200
O190        O  0.45708878  0.03780994  0.53251455    -1.03300
O191        O  0.57365211  0.88484668  0.49157604    -0.80500
O192        O  0.56616707  0.11524374  0.49233377    -0.80000
O193        O  0.50086305  0.93275566  0.37379352    -0.78500
O194        O  0.50431034  0.93095274  0.60744728    -0.81800
O195        O  0.50106637  0.06156316  0.60948016    -0.79600
O196        O  0.49541106  0.06389593  0.37209283    -0.78300
O197        O  0.61890308  0.99202951  0.42728348    -0.79800
O198        O  0.61800038  0.00277696  0.55960886    -0.81700
O199        O  0.57023871  0.99378839  0.37656586    -0.78500
O200        O  0.56894410  0.99651185  0.60892925    -0.81200
O201        O  0.50110240  0.88168823  0.42232324    -0.76900
O202        O  0.48844286  0.11318715  0.42160490    -0.76900
O203        O  0.49746967  0.11227236  0.56088788    -0.76600
O204        O  0.50786883  0.88028085  0.55891722    -0.80100
O205        O  0.62039928  0.93693678  0.49718008    -0.79500
O206        O  0.61668537  0.06617797  0.48893098    -0.77800
Eu207      Eu  0.50236007  0.91313998  0.49108834     2.39800
Eu208      Eu  0.49720558  0.08180328  0.49115424     2.39600
Eu209      Eu  0.50054862  0.99831601  0.40804491     2.38400
Eu210      Eu  0.50033434  0.99690302  0.57404418     2.39900
Eu211      Eu  0.58258898  0.00041006  0.49218921     2.39800
O212        O  0.53993222  0.04099451  0.53331653    -0.92200
O213        O  0.54252386  0.95720021  0.45038535    -0.91100
C214        C  0.61076770  0.89891990  0.49517007     1.02900
C215        C  0.60434438  0.10355339  0.49115933     1.01700
C216        C  0.50034236  0.89501789  0.38499949     1.01000
C217        C  0.50807591  0.89338799  0.59626357     1.03100
C218        C  0.49962118  0.09928510  0.59842937     1.02000
C219        C  0.48889715  0.10111766  0.38367562     1.00800
C220        C  0.60792159  0.99068761  0.38940248     1.00900
C221        C  0.60684399  0.99956880  0.59739362     1.03500
H222        H  0.55747905  0.05917117  0.43197392     0.30900
O223        O  0.54091951  0.04193429  0.44922726    -1.04400
H224        H  0.56051887  0.94061695  0.54978318     0.32900
O225        O  0.54259612  0.95669840  0.53256849    -1.07000
N226        N  0.27267869  0.95952814  0.72002338    -0.02900
C227        C  0.27929513  0.94956702  0.76005224    -0.00300
C228        C  0.24516223  0.93020957  0.77602280    -0.23200
C229        C  0.21674807  0.92775714  0.74517070    -0.23400
C230        C  0.23432999  0.94551622  0.71122187    -0.00400
H231        H  0.24038786  0.92149527  0.80763341     0.13400
H232        H  0.18535843  0.91740774  0.74807526     0.13400
N233        N  0.73509564  0.99182738  0.72144347    -0.02900
C234        C  0.77640082  0.99159252  0.71576263    -0.00300
C235        C  0.79729006  0.99002917  0.75255338    -0.23200
C236        C  0.76825922  0.98961139  0.78244885    -0.23400
C237        C  0.73060004  0.99079280  0.76289155    -0.00400
H238        H  0.83024056  0.98954329  0.75702415     0.13400
H239        H  0.77387511  0.98884128  0.81514195     0.13400
N240        N  0.26885041  0.01160811  0.25760650    -0.02900
C241        C  0.27394555  0.01988289  0.21693370    -0.00300
C242        C  0.24104911  0.04225816  0.20184580    -0.23200
C243        C  0.21389795  0.04638840  0.23310437    -0.23400
C244        C  0.23120660  0.02706510  0.26664327    -0.00400
H245        H  0.23663118  0.05365995  0.17106384     0.13400
H246        H  0.18333895  0.05941652  0.23087679     0.13400
O247        O  0.61872423  0.99888692  0.06383153    -0.79500
O248        O  0.38810115  0.99437810  0.06069033    -0.81100
O249        O  0.49435870  0.06657155  0.10900359    -0.78100
O250        O  0.50165089  0.92812230  0.10623834    -0.76500
O251        O  0.50654033  0.87863583  0.05686797    -0.78300
O252        O  0.49240247  0.11658085  0.05969415    -0.79200
O253        O  0.43825526  0.99369179  0.10982939    -0.80500
O254        O  0.56677541  0.99720624  0.11091415    -0.80800
Eu255      Eu  0.50199355  0.99819384  0.07437781     2.39200
O256        O  0.46131282  0.95565279  0.03247454    -0.88300
O257        O  0.54346430  0.04142224  0.03440266    -0.91900
C258        C  0.60484600  0.99688788  0.10100047     1.02800
C259        C  0.40062082  0.99340500  0.09855007     1.02600
C260        C  0.49092427  0.10460926  0.09751609     1.02500
C261        C  0.50409503  0.89007230  0.09461971     1.00400
H262        H  0.44079938  0.05564188  0.04905941     0.30100
O263        O  0.45894719  0.03906166  0.03248048    -1.00700
H264        H  0.56196291  0.94076751  0.05044425     0.30200
O265        O  0.54520342  0.95782414  0.03326947    -1.03300
O266        O  0.38429922  0.99337214  0.92264155    -0.80500
O267        O  0.62005110  0.99831131  0.92448204    -0.80000
O268        O  0.43376078  0.11336750  0.98347724    -0.78500
O269        O  0.43959838  0.87888992  0.99232197    -0.81800
O270        O  0.57142441  0.88314061  0.98972571    -0.79600
O271        O  0.56483046  0.11836694  0.99893590    -0.78300
O272        O  0.50201621  0.06798339  0.87440412    -0.79800
O273        O  0.50560612  0.93203283  0.87395596    -0.81700
O274        O  0.50538286  0.11736098  0.92410269    -0.78500
O275        O  0.50325867  0.88183396  0.92295228    -0.81200
O276        O  0.38403197  0.06363522  0.98406455    -0.76900
O277        O  0.61728194  0.07128891  0.99676231    -0.76900
O278        O  0.62134077  0.93232328  0.99505849    -0.76600
O279        O  0.38797279  0.92680060  0.98906117    -0.80100
O280        O  0.43529765  0.99601205  0.87480676    -0.79500
O281        O  0.56957380  0.99959649  0.87509860    -0.77800
Eu282      Eu  0.41835040  0.99629343  0.99069046     2.39800
Eu283      Eu  0.58738449  0.00087684  0.99349999     2.39600
Eu284      Eu  0.50055419  0.08195737  0.99199862     2.38400
Eu285      Eu  0.50448116  0.91569988  0.99086363     2.39900
Eu286      Eu  0.50284384  0.99976592  0.90855683     2.39800
O287        O  0.54566202  0.95927621  0.95095503    -0.92200
O288        O  0.45975014  0.03953244  0.95013267    -0.91100
C289        C  0.39721475  0.99313176  0.88522187     1.02900
C290        C  0.60738195  0.99825528  0.88670746     1.01700
C291        C  0.39644096  0.10114045  0.98104275     1.01000
C292        C  0.40158503  0.88943660  0.99022621     1.03100
C293        C  0.60900702  0.89462605  0.99257914     1.02000
C294        C  0.60303931  0.10843681  0.99967754     1.00800
C295        C  0.50447568  0.10585926  0.88607268     1.00900
C296        C  0.50461649  0.89396200  0.88528432     1.03500
H297        H  0.56100191  0.05896056  0.93461781     0.30900
O298        O  0.54422466  0.04152724  0.95111139    -1.04400
H299        H  0.44561441  0.93893532  0.93180164     0.32900
O300        O  0.46189071  0.95651676  0.94909015    -1.07000
N301        N  0.47007796  0.22942128  0.22387068    -0.02900
C302        C  0.45283256  0.22518763  0.26205226    -0.00300
C303        C  0.44617135  0.26353164  0.27913953    -0.23200
C304        C  0.45948776  0.29195061  0.25179593    -0.23400
C305        C  0.47448528  0.27066929  0.21867530    -0.00400
H306        H  0.43627253  0.27068968  0.30977422     0.13400
H307        H  0.45867606  0.32491261  0.25582935     0.13400
N308        N  0.49440501  0.76637849  0.22284780    -0.02900
C309        C  0.49920111  0.72484815  0.21954410    -0.00300
C310        C  0.49296253  0.70555552  0.25662325    -0.23200
C311        C  0.48630574  0.73561594  0.28451705    -0.23400
C312        C  0.48829818  0.77232031  0.26354708    -0.00400
H313        H  0.49310154  0.67290867  0.26271125     0.13400
H314        H  0.48195140  0.73135321  0.31708527     0.13400
N315        N  0.51976896  0.76791932  0.76122042    -0.02900
C316        C  0.51467799  0.72667440  0.76628200    -0.00300
C317        C  0.52012851  0.70578993  0.73004611    -0.23200
C318        C  0.52669383  0.73461889  0.70087982    -0.23400
C319        C  0.52550101  0.77236503  0.72022533    -0.00400
H320        H  0.51900884  0.67294470  0.72529943     0.13400
H321        H  0.53016908  0.72877061  0.66845185     0.13400
N322        N  0.50704540  0.23096526  0.75852114    -0.02900
C323        C  0.50479131  0.22698883  0.71692562    -0.00300
C324        C  0.51681169  0.26248758  0.69738905    -0.23200
C325        C  0.52553825  0.29012798  0.72703762    -0.23400
C326        C  0.51929168  0.27060762  0.76405165    -0.00400
H327        H  0.52019021  0.26737339  0.66481248     0.13400
H328        H  0.53515362  0.32150036  0.72207105     0.13400
O329        O  0.01404199  0.38197138  0.06778093    -0.79500
O330        O  0.00323897  0.61427521  0.05808763    -0.81100
O331        O  0.07088609  0.49977154  0.11190465    -0.78100
O332        O  0.93598344  0.49828447  0.11292361    -0.76500
O333        O  0.88597905  0.49631292  0.06345509    -0.78300
O334        O  0.12045424  0.49392077  0.06290377    -0.79200
O335        O  0.00164234  0.56454081  0.10762619    -0.80500
O336        O  0.01086892  0.43420633  0.11476769    -0.80800
Eu337      Eu  0.00333006  0.49718706  0.07710851     2.39200
O338        O  0.96158836  0.53646790  0.03348561    -0.88300
O339        O  0.04477182  0.45389812  0.03721300    -0.91900
C340        C  0.01526274  0.39650277  0.10461359     1.02800
C341        C  0.00188426  0.60211553  0.09583230     1.02600
C342        C  0.10875326  0.49724755  0.10052200     1.02500
C343        C  0.89788251  0.49838990  0.10136685     1.00400
H344        H  0.06227243  0.55535617  0.05167340     0.30100
O345        O  0.04499750  0.53761719  0.03479290    -1.00700
H346        H  0.94601931  0.43612106  0.05684616     0.30200
O347        O  0.96222337  0.45220471  0.03834132    -1.03300
O348        O  0.00330646  0.60678681  0.92055029    -0.80500
O349        O  0.00563929  0.37469697  0.92969169    -0.80000
O350        O  0.12182331  0.55886344  0.99541133    -0.78500
O351        O  0.88462448  0.55708088  0.99536596    -0.81800
O352        O  0.88528611  0.42551719  0.00057549    -0.79600
O353        O  0.11945008  0.42720372  0.99523344    -0.78300
O354        O  0.07200360  0.49361800  0.87738428    -0.79800
O355        O  0.93587795  0.49058459  0.87634316    -0.81700
O356        O  0.12132059  0.49867497  0.92725685    -0.78500
O357        O  0.88637035  0.48818881  0.92582201    -0.81200
O358        O  0.07294775  0.60946806  0.98982365    -0.76900
O359        O  0.07217659  0.37549714  0.99716222    -0.76900
O360        O  0.93553852  0.37623776  0.00568181    -0.76600
O361        O  0.93331907  0.60777119  0.99162255    -0.80100
O362        O  0.00509387  0.55431370  0.87383373    -0.79500
O363        O  0.00389021  0.42409986  0.87960734    -0.77800
Eu364      Eu  0.00321095  0.57782130  0.99128198     2.39800
Eu365      Eu  0.00406685  0.40920307  0.99767063     2.39600
Eu366      Eu  0.08639847  0.49398032  0.99491213     2.38400
Eu367      Eu  0.91983733  0.49176372  0.99485182     2.39900
Eu368      Eu  0.00344051  0.49079704  0.91183970     2.39800
O369        O  0.96187359  0.44926148  0.95420673    -0.92200
O370        O  0.04462664  0.53418517  0.95185104    -0.91100
C371        C  0.00455080  0.59241518  0.88352722     1.02900
C372        C  0.00559613  0.38670015  0.89181338     1.01700
C373        C  0.11063360  0.59650422  0.99232125     1.01000
C374        C  0.89587300  0.59472500  0.99351706     1.03100
C375        C  0.89748341  0.38820540  0.00570589     1.02000
C376        C  0.10938137  0.38906098  0.99532550     1.00800
C377        C  0.10988223  0.49765095  0.88920870     1.00900
C378        C  0.89803876  0.48857167  0.88788656     1.03500
H379        H  0.06285174  0.43336189  0.93780870     0.30900
O380        O  0.04539074  0.45032061  0.95465517    -1.04400
H381        H  0.94347895  0.54969176  0.93405895     0.32900
O382        O  0.96120257  0.53328411  0.95215361    -1.07000
N383        N  0.77219227  0.52023412  0.22486287    -0.02900
C384        C  0.77485279  0.51222423  0.26563964    -0.00300
C385        C  0.73784022  0.51964756  0.28455060    -0.23200
C386        C  0.71106686  0.53201921  0.25461529    -0.23400
C387        C  0.73251227  0.53218111  0.21818587    -0.00400
H388        H  0.73097538  0.51618733  0.31674522     0.13400
H389        H  0.67845983  0.53683285  0.25859864     0.13400
N390        N  0.23629563  0.50011240  0.22537745    -0.02900
C391        C  0.27789199  0.49902089  0.21986458    -0.00300
C392        C  0.29857456  0.50738410  0.25586685    -0.23200
C393        C  0.26964549  0.51425879  0.28488764    -0.23400
C394        C  0.23190943  0.50971999  0.26599446    -0.00400
H395        H  0.33150548  0.50843232  0.26041407     0.13400
H396        H  0.27548506  0.52078132  0.31688907     0.13400
N397        N  0.23399160  0.51858023  0.76338317    -0.02900
C398        C  0.27471159  0.52892076  0.76547442    -0.00300
C399        C  0.29066255  0.53248033  0.72642149    -0.23200
C400        C  0.25959211  0.52470008  0.69957843    -0.23400
C401        C  0.22558061  0.51587677  0.72272457    -0.00400
H402        H  0.32235816  0.53666492  0.71795006     0.13400
H403        H  0.26184637  0.52396569  0.66652703     0.13400
N404        N  0.77596917  0.45618914  0.76258213    -0.02900
C405        C  0.78422492  0.43962392  0.72520358    -0.00300
C406        C  0.74903114  0.42136406  0.70971881    -0.23200
C407        C  0.71784062  0.42969660  0.73631800    -0.23400
C408        C  0.73469845  0.45197771  0.76803313    -0.00400
H409        H  0.74520830  0.40821425  0.67950749     0.13400
H410        H  0.68585185  0.42195702  0.73195384     0.13400
N411        N  0.27495934  0.26721668  0.95752509    -0.02900
C412        C  0.23395363  0.27367186  0.95164376    -0.00300
C413        C  0.21516496  0.23872042  0.93658294    -0.23200
C414        C  0.24448361  0.20902741  0.93497585    -0.23400
C415        C  0.28026820  0.22687540  0.94857519    -0.00400
H416        H  0.18263701  0.23422226  0.93134409     0.13400
H417        H  0.23963786  0.17694381  0.92790430     0.13400
O418        O  0.50333217  0.42546345  0.10629289    -0.79500
O419        O  0.51323731  0.43083822  0.87420353    -0.81100
O420        O  0.43624514  0.38098624  0.98764973    -0.78100
O421        O  0.57279934  0.37808541  0.99561891    -0.76500
O422        O  0.62231860  0.42757101  0.99898310    -0.78300
O423        O  0.38593533  0.42995969  0.99117811    -0.79200
O424        O  0.51083416  0.38171650  0.92450476    -0.80500
O425        O  0.49952407  0.37786078  0.05478957    -0.80800
Eu426      Eu  0.50520541  0.41397115  0.99071084     2.39200
O427        O  0.54727980  0.45566750  0.95023391    -0.88300
O428        O  0.46429375  0.45548184  0.03245769    -0.91900
C429        C  0.49994041  0.38816928  0.09266802     1.02800
C430        C  0.51403001  0.39326550  0.88707076     1.02600
C431        C  0.39801728  0.39222408  0.98882227     1.02500
C432        C  0.61063311  0.38970350  0.99924102     1.00400
H433        H  0.44788722  0.43931564  0.93068746     0.30100
O434        O  0.46448437  0.45617492  0.94815722    -1.00700
H435        H  0.56311871  0.43683801  0.05181954     0.30200
O436        O  0.54648357  0.45416185  0.03449015    -1.03300
O437        O  0.50892678  0.56963923  0.87850574    -0.80500
O438        O  0.50209611  0.56622522  0.10696979    -0.80000
O439        O  0.38799638  0.49693174  0.92468332    -0.78500
O440        O  0.62540729  0.49109681  0.92945694    -0.81800
O441        O  0.62436895  0.49703380  0.05788736    -0.79600
O442        O  0.38837835  0.49176228  0.05691811    -0.78300
O443        O  0.43740964  0.61334334  0.98942699    -0.79800
O444        O  0.57343814  0.61286513  0.99570450    -0.81700
O445        O  0.38733178  0.56447070  0.99271123    -0.78500
O446        O  0.62300787  0.56311066  0.99187404    -0.81200
O447        O  0.43771638  0.50053977  0.87529232    -0.76900
O448        O  0.43652862  0.48951270  0.10836528    -0.76900
O449        O  0.57521278  0.50038212  0.10779231    -0.76600
O450        O  0.57780290  0.49515102  0.87794948    -0.80100
O451        O  0.51007826  0.61721304  0.93012633    -0.79500
O452        O  0.50117587  0.61526741  0.05660071    -0.77800
Eu453      Eu  0.50724945  0.49863667  0.90767927     2.39800
Eu454      Eu  0.50512254  0.49585747  0.07638021     2.39600
Eu455      Eu  0.42226420  0.49664500  0.99091250     2.38400
Eu456      Eu  0.58854228  0.49557404  0.99336755     2.39900
Eu457      Eu  0.50550655  0.57904005  0.99292957     2.39800
O458        O  0.54707776  0.53738679  0.03512721    -0.92200
O459        O  0.46423398  0.53874461  0.94979869    -0.91100
C460        C  0.51025855  0.60703047  0.89228588     1.02900
C461        C  0.50075801  0.60400496  0.09413340     1.01700
C462        C  0.39976520  0.49961883  0.88728543     1.01000
C463        C  0.61528945  0.49153030  0.89143614     1.03100
C464        C  0.61300080  0.50038041  0.09520592     1.02000
C465        C  0.39908729  0.48888697  0.09480855     1.00800
C466        C  0.39935759  0.60220405  0.99079220     1.00900
C467        C  0.61128798  0.60103014  0.99349870     1.03500
H468        H  0.44557491  0.55437658  0.05068170     0.30900
O469        O  0.46320601  0.53763093  0.03409921    -1.04400
H470        H  0.56632530  0.55597424  0.93473987     0.32900
O471        O  0.54832782  0.53862181  0.95121411    -1.07000
N472        N  0.73575826  0.72764595  0.99050587    -0.02900
C473        C  0.73056202  0.76912802  0.98816416    -0.00300
C474        C  0.76717148  0.78892027  0.98098294    -0.23200
C475        C  0.79649590  0.75926080  0.97882795    -0.23400
C476        C  0.77680605  0.72228128  0.98475527    -0.00400
H477        H  0.77186776  0.82163809  0.97772384     0.13400
H478        H  0.82893540  0.76403969  0.97371237     0.13400
N479        N  0.27301675  0.72723201  0.97447708    -0.02900
C480        C  0.27664005  0.76871770  0.97075655    -0.00300
C481        C  0.23862904  0.78764649  0.97147939    -0.23200
C482        C  0.21020932  0.75731371  0.97519558    -0.23400
C483        C  0.23169687  0.72083449  0.97684498    -0.00400
H484        H  0.23239249  0.82029783  0.97095804     0.13400
H485        H  0.17726376  0.76131720  0.97703504     0.13400
N486        N  0.73404138  0.26607577  0.03526131    -0.02900
C487        C  0.77375115  0.26924231  0.04884484    -0.00300
C488        C  0.78737978  0.23165670  0.06357508    -0.23200
C489        C  0.75561069  0.20479197  0.05954900    -0.23400
C490        C  0.72364736  0.22644377  0.04209862    -0.00400
H491        H  0.81818042  0.22327649  0.07273121     0.13400
H492        H  0.75660266  0.17216759  0.06581887     0.13400
C493        C  0.66680211  0.36007520  0.04222547    -0.11700
C494        C  0.64299074  0.35782292  0.00653810     0.05400
C495        C  0.65046956  0.32535014  0.97914422    -0.06900
C496        C  0.68137307  0.29595562  0.98787324    -0.07700
C497        C  0.70539797  0.29855284  0.02390406    -0.02200
C498        C  0.69784577  0.33125644  0.05100868     0.04600
N499        N  0.71993572  0.33408146  0.08881406     0.67100
H500        H  0.65954984  0.38344944  0.06416052     0.16000
H501        H  0.68671065  0.27113875  0.96651081     0.15700
N502        N  0.62830817  0.32331801  0.94144749     0.74800
O503        O  0.74814081  0.36023978  0.09267842    -0.38700
O504        O  0.71539194  0.30691023  0.11596321    -0.38600
O505        O  0.63750404  0.34792091  0.91320731    -0.39300
O506        O  0.59417186  0.30519781  0.94017734    -0.39400
C507        C  0.36943790  0.66391983  0.95638065    -0.11700
C508        C  0.36747006  0.63516903  0.98831691     0.05400
C509        C  0.33463545  0.63826686  0.01620688    -0.06900
C510        C  0.30526379  0.66963160  0.01196276    -0.07700
C511        C  0.30574328  0.69698182  0.97882406    -0.02200
C512        C  0.33861875  0.69387326  0.95077403     0.04600
N513        N  0.34013548  0.71883966  0.91493671     0.67100
H514        H  0.39407466  0.66184827  0.93428835     0.16000
H515        H  0.28173230  0.67233472  0.03483802     0.15700
N516        N  0.32944462  0.60912488  0.04828485     0.74800
O517        O  0.36791199  0.74557559  0.91237612    -0.38700
O518        O  0.32411203  0.70534937  0.88238465    -0.38600
O519        O  0.33685483  0.61994483  0.08466815    -0.39300
O520        O  0.30515390  0.57971014  0.04203758    -0.39400
C521        C  0.70417138  0.66462717  0.96203041    -0.11700
C522        C  0.70449451  0.69584705  0.99194763     0.05400
C523        C  0.67404502  0.69483674  0.02272476    -0.06900
C524        C  0.64357397  0.66435363  0.02207114    -0.07700
C525        C  0.64343791  0.63335771  0.99234394    -0.02200
C526        C  0.67436418  0.63338538  0.96227578     0.04600
N527        N  0.67572733  0.60184290  0.93181320     0.67100
H528        H  0.72707991  0.66472383  0.93813428     0.16000
H529        H  0.62072324  0.66395207  0.04606617     0.15700
N530        N  0.67529116  0.72217762  0.05684002     0.74800
O531        O  0.64868147  0.60072699  0.90404387    -0.38700
O532        O  0.69811851  0.57071686  0.93777298    -0.38600
O533        O  0.64632905  0.74758290  0.06125777    -0.39300
O534        O  0.69610268  0.71186976  0.08792197    -0.39400
C535        C  0.30230639  0.32379125  0.00057289    -0.11700
C536        C  0.30674912  0.29713851  0.96708201     0.05400
C537        C  0.34196195  0.30189658  0.94205293    -0.06900
C538        C  0.37139852  0.33187350  0.95126874    -0.07700
C539        C  0.36629931  0.35943916  0.98368071    -0.02200
C540        C  0.33084210  0.35541701  0.00836408     0.04600
N541        N  0.32287744  0.38297995  0.04133914     0.67100
H542        H  0.27583102  0.32081846  0.02022267     0.16000
H543        H  0.39770510  0.33498103  0.93131412     0.15700
N544        N  0.34746555  0.27887054  0.90531260     0.74800
O545        O  0.29924701  0.41313472  0.03499828    -0.38700
O546        O  0.32771375  0.37024756  0.07754056    -0.38600
O547        O  0.33292320  0.29332815  0.87240526    -0.39300
O548        O  0.37788785  0.25488267  0.90327749    -0.39400
C549        C  0.71711667  0.46200840  0.84147356    -0.11700
C550        C  0.70888364  0.47084609  0.80045309     0.05400
C551        C  0.67180515  0.49167202  0.79051416    -0.06900
C552        C  0.64243596  0.49903075  0.82075437    -0.07700
C553        C  0.64919271  0.48688358  0.86136948    -0.02200
C554        C  0.68808907  0.46974808  0.87190438     0.04600
N555        N  0.69825463  0.45748446  0.91275139     0.67100
H556        H  0.74511973  0.44664254  0.85016150     0.16000
H557        H  0.61390295  0.51401236  0.81211995     0.15700
N558        N  0.66351815  0.50631869  0.75001597     0.74800
O559        O  0.69323503  0.42047294  0.92287644    -0.38700
O560        O  0.72329551  0.47900496  0.93297337    -0.38600
O561        O  0.63695404  0.48809295  0.72851442    -0.39300
O562        O  0.67189477  0.54317461  0.74170857    -0.39400
C563        C  0.37043969  0.53967155  0.83061987    -0.11700
C564        C  0.36703938  0.50583889  0.85652513     0.05400
C565        C  0.33037604  0.48277499  0.85595884    -0.06900
C566        C  0.29893179  0.49263294  0.82813028    -0.07700
C567        C  0.30271046  0.52600881  0.80139449    -0.02200
C568        C  0.33865839  0.55048917  0.80385988     0.04600
N569        N  0.34345119  0.58701531  0.78007832     0.67100
H570        H  0.39752839  0.55887267  0.83212845     0.16000
H571        H  0.27244253  0.47275843  0.82622950     0.15700
N572        N  0.32470688  0.44877067  0.88279837     0.74800
O573        O  0.33359327  0.62086448  0.79606090    -0.38700
O574        O  0.36931271  0.58702718  0.75144398    -0.38600
O575        O  0.30185034  0.45344175  0.91348545    -0.39300
O576        O  0.33183284  0.41298847  0.86980131    -0.39400
C577        C  0.33320594  0.51562050  0.12034393    -0.11700
C578        C  0.36515683  0.48696241  0.12437308     0.05400
C579        C  0.36351277  0.45775583  0.15603327    -0.06900
C580        C  0.33182488  0.45992043  0.18468427    -0.07700
C581        C  0.30148311  0.49073743  0.18236524    -0.02200
C582        C  0.30159526  0.51805594  0.14901397     0.04600
N583        N  0.27203861  0.55034943  0.14536797     0.67100
H584        H  0.33424458  0.53779315  0.09596625     0.16000
H585        H  0.33196275  0.43855159  0.21015586     0.15700
N586        N  0.39333706  0.42564768  0.15945673     0.74800
O587        O  0.28026433  0.58507028  0.16030860    -0.38700
O588        O  0.24448753  0.54770265  0.11820233    -0.38600
O589        O  0.42290009  0.42972927  0.18421870    -0.39300
O590        O  0.38411697  0.39017609  0.14707168    -0.39400
C591        C  0.71231618  0.49449587  0.15627298    -0.11700
C592        C  0.70984518  0.53072637  0.17895863     0.05400
C593        C  0.67705220  0.55827573  0.17099039    -0.06900
C594        C  0.64525781  0.54687478  0.14454938    -0.07700
C595        C  0.64608354  0.50902709  0.12460291    -0.02200
C596        C  0.68118480  0.48378638  0.12879146     0.04600
N597        N  0.68454712  0.44555997  0.10809516     0.67100
H598        H  0.73664032  0.47253992  0.16225749     0.16000
H599        H  0.61992553  0.56796528  0.13928296     0.15700
N600        N  0.67528251  0.59787622  0.18958862     0.74800
O601        O  0.70504292  0.44421812  0.07543189    -0.38700
O602        O  0.68030522  0.41316083  0.12884134    -0.38600
O603        O  0.68360306  0.62883711  0.16795949    -0.39300
O604        O  0.65352685  0.60271959  0.22104614    -0.39400
C605        C  0.83485973  0.62925700  0.02260337    -0.11700
C606        C  0.86285202  0.62488020  0.99064740     0.05400
C607        C  0.85834452  0.64829123  0.95498818    -0.06900
C608        C  0.82696478  0.67719847  0.95204405    -0.07700
C609        C  0.80014303  0.68365295  0.98490707    -0.02200
C610        C  0.80389938  0.65906809  0.02035983     0.04600
N611        N  0.77933923  0.66625341  0.05567006     0.67100
H612        H  0.83824246  0.61083503  0.05009082     0.16000
H613        H  0.82477154  0.69617763  0.92481571     0.15700
N614        N  0.88590547  0.64276366  0.92175477     0.74800
O615        O  0.74962559  0.64255486  0.06249898    -0.38700
O616        O  0.79463395  0.68617449  0.08512043    -0.38600
O617        O  0.88676431  0.60837528  0.90412601    -0.39300
O618        O  0.91652598  0.66617479  0.91904200    -0.39400
C619        C  0.86769113  0.33817135  0.05381085    -0.11700
C620        C  0.86549570  0.35781493  0.01573188     0.05400
C621        C  0.83083116  0.35120351  0.99049420    -0.06900
C622        C  0.80027408  0.32369936  0.00269129    -0.07700
C623        C  0.80271300  0.30336117  0.04045115    -0.02200
C624        C  0.83661433  0.31162342  0.06667380     0.04600
N625        N  0.83954635  0.29454252  0.10699103     0.67100
H626        H  0.89320393  0.34443900  0.07432627     0.16000
H627        H  0.77539104  0.31709047  0.98161289     0.15700
N628        N  0.82694004  0.37061042  0.95148654     0.74800
O629        O  0.86588614  0.26686677  0.11404561    -0.38700
O630        O  0.82571714  0.31500444  0.13669351    -0.38600
O631        O  0.83961140  0.35180578  0.92023087    -0.39300
O632        O  0.80092300  0.39909485  0.94706932    -0.39400
C633        C  0.15448677  0.64075920  0.95040750    -0.11700
C634        C  0.14419832  0.62617869  0.98924019     0.05400
C635        C  0.16900548  0.63681094  0.02314930    -0.06900
C636        C  0.19943349  0.66665429  0.01852089    -0.07700
C637        C  0.20950731  0.68170279  0.97969699    -0.02200
C638        C  0.18770667  0.66724977  0.94529919     0.04600
N639        N  0.19886464  0.67953547  0.90496030     0.67100
H640        H  0.13728617  0.63067278  0.92383607     0.16000
H641        H  0.21465738  0.67857927  0.04550943     0.15700
N642        N  0.16514330  0.61653537  0.06177446     0.74800
O643        O  0.22367976  0.65747022  0.88519196    -0.38700
O644        O  0.17705489  0.70549882  0.88605078    -0.38600
O645        O  0.17644278  0.57954268  0.06451905    -0.39300
O646        O  0.16373080  0.63779207  0.09397790    -0.39400
C647        C  0.17709757  0.37335262  0.96587084    -0.11700
C648        C  0.14368847  0.35998605  0.98959201     0.05400
C649        C  0.14382657  0.31951181  0.00486180    -0.06900
C650        C  0.17692972  0.29375423  0.99608129    -0.07700
C651        C  0.20852085  0.30626894  0.96972913    -0.02200
C652        C  0.20874159  0.34663852  0.95500196     0.04600
N653        N  0.23879526  0.36019983  0.92651227     0.67100
H654        H  0.17741336  0.40410824  0.95317754     0.16000
H655        H  0.17619143  0.26238644  0.00719473     0.15700
N656        N  0.10986066  0.30291088  0.02681104     0.74800
O657        O  0.22999908  0.36050292  0.88884298    -0.38700
O658        O  0.26761704  0.38252664  0.93930236    -0.38600
O659        O  0.08304040  0.28308490  0.00713110    -0.39300
O660        O  0.11383727  0.29620099  0.06465578    -0.39400
C661        C  0.84828508  0.44332323  0.85251326    -0.11700
C662        C  0.86604860  0.48232475  0.85551297     0.05400
C663        C  0.85408780  0.51262373  0.82648238    -0.06900
C664        C  0.82366532  0.50390546  0.79687174    -0.07700
C665        C  0.80616407  0.46490180  0.79404315    -0.02200
C666        C  0.81965638  0.43402368  0.82160266     0.04600
N667        N  0.80571475  0.39264593  0.81778738     0.67100
H668        H  0.85798874  0.41929964  0.87342812     0.16000
H669        H  0.81436826  0.52742621  0.77522299     0.15700
N670        N  0.87215857  0.55239170  0.82611442     0.74800
O671        O  0.78103242  0.37862915  0.84389253    -0.38700
O672        O  0.82671668  0.36774503  0.79695078    -0.38600
O673        O  0.90228198  0.55848966  0.80278598    -0.39300
O674        O  0.84996124  0.58259344  0.83590860    -0.39400
C675        C  0.16322427  0.54007570  0.85247705    -0.11700
C676        C  0.14253628  0.50231472  0.85703451     0.05400
C677        C  0.15310354  0.46999315  0.83007897    -0.06900
C678        C  0.18420641  0.47530067  0.80070222    -0.07700
C679        C  0.20461986  0.51284489  0.79623348    -0.02200
C680        C  0.19299049  0.54573712  0.82157749     0.04600
N681        N  0.20875436  0.58576614  0.81356227     0.67100
H682        H  0.15497996  0.56575545  0.87184522     0.16000
H683        H  0.19209858  0.45003617  0.78073436     0.15700
N684        N  0.13253620  0.43144903  0.83182148     0.74800
O685        O  0.19549865  0.60532679  0.78279327    -0.38700
O686        O  0.24249541  0.59612673  0.82949000    -0.38600
O687        O  0.10502566  0.42384302  0.80557721    -0.39300
O688        O  0.14959850  0.40197751  0.85044424    -0.39400
C689        C  0.17262823  0.46878122  0.13240562    -0.11700
C690        C  0.14118997  0.49818118  0.13284027     0.05400
C691        C  0.14086956  0.52755512  0.16447078    -0.06900
C692        C  0.17217829  0.52756623  0.19440081    -0.07700
C693        C  0.20394204  0.49797290  0.19431177    -0.02200
C694        C  0.20322762  0.46767710  0.16294655     0.04600
N695        N  0.23135241  0.43393977  0.16244513     0.67100
H696        H  0.17256835  0.44531424  0.10889039     0.16000
H697        H  0.17208031  0.55137913  0.21749796     0.15700
N698        N  0.10964456  0.55848004  0.16559624     0.74800
O699        O  0.25641689  0.43152041  0.13320515    -0.38700
O700        O  0.22107612  0.40123555  0.18032113    -0.38600
O701        O  0.07861133  0.55325083  0.18790480    -0.39300
O702        O  0.10856887  0.58570676  0.13813594    -0.39400
C703        C  0.85135729  0.54276488  0.14375144    -0.11700
C704        C  0.86566869  0.50315326  0.13374247     0.05400
C705        C  0.84883367  0.46928438  0.15501078    -0.06900
C706        C  0.81918951  0.47553656  0.18568112    -0.07700
C707        C  0.80436675  0.51490132  0.19478974    -0.02200
C708        C  0.82070071  0.54869462  0.17358794     0.04600
N709        N  0.80606580  0.58917288  0.18206788     0.67100
H710        H  0.86380552  0.56921620  0.12804702     0.16000
H711        H  0.80641277  0.44930961  0.20147177     0.15700
N712        N  0.85973685  0.42813913  0.14463416     0.74800
O713        O  0.81601214  0.60649962  0.21517993    -0.38700
O714        O  0.77701338  0.60383273  0.16087919    -0.38600
O715        O  0.88161730  0.40766158  0.16932829    -0.39300
O716        O  0.83758592  0.40923452  0.11911644    -0.39400
C717        C  0.55437321  0.32312028  0.80481663    -0.11700
C718        C  0.52279576  0.29385827  0.80263903     0.05400
C719        C  0.49049683  0.29577959  0.83112543    -0.06900
C720        C  0.48888605  0.32834600  0.85878708    -0.07700
C721        C  0.51792497  0.35994346  0.85748733    -0.02200
C722        C  0.55150007  0.35686296  0.83082291     0.04600
N723        N  0.58187494  0.38833067  0.82826589     0.67100
H724        H  0.57967684  0.32181467  0.78342148     0.16000
H725        H  0.46354525  0.33005425  0.88012545     0.15700
N726        N  0.45736283  0.26726772  0.83052092     0.74800
O727        O  0.61769286  0.38094885  0.84118873    -0.38700
O728        O  0.57676149  0.41687414  0.80259421    -0.38600
O729        O  0.45571876  0.24037715  0.85829113    -0.39300
O730        O  0.42495840  0.27659420  0.81125533    -0.39400
C731        C  0.53591191  0.70551400  0.83571107    -0.11700
C732        C  0.50674989  0.70409861  0.80431152     0.05400
C733        C  0.47639821  0.67326517  0.80472881    -0.06900
C734        C  0.47871211  0.64165712  0.83334911    -0.07700
C735        C  0.50974918  0.64115264  0.86293463    -0.02200
C736        C  0.53713435  0.67475984  0.86561585     0.04600
N737        N  0.56822972  0.67685440  0.89648035     0.67100
H738        H  0.55941764  0.72897873  0.83555522     0.16000
H739        H  0.45592150  0.61749499  0.83260249     0.15700
N740        N  0.44324291  0.67336028  0.77589684     0.74800
O741        O  0.60467518  0.66858142  0.88657638    -0.38700
O742        O  0.56211699  0.69938423  0.92727195    -0.38600
O743        O  0.44349307  0.64778038  0.74691932    -0.39300
O744        O  0.40965048  0.68973099  0.78607806    -0.39400
C745        C  0.47821323  0.70361585  0.15012931    -0.11700
C746        C  0.50627635  0.70049308  0.18243084     0.05400
C747        C  0.53422162  0.66716833  0.18361111    -0.06900
C748        C  0.53089631  0.63566746  0.15509244    -0.07700
C749        C  0.50119996  0.63736115  0.12423417    -0.02200
C750        C  0.47585165  0.67268278  0.12058232     0.04600
N751        N  0.44562525  0.67651402  0.08895218     0.67100
H752        H  0.45627206  0.72871334  0.14924004     0.16000
H753        H  0.55209440  0.60995951  0.15676657     0.15700
N754        N  0.56601612  0.66462812  0.21386124     0.74800
O755        O  0.40896007  0.66747221  0.09709003    -0.38700
O756        O  0.45255252  0.70036341  0.05934126    -0.38600
O757        O  0.56357747  0.63782251  0.24165264    -0.39300
O758        O  0.60061953  0.67978656  0.20577732    -0.39400
C759        C  0.52104050  0.35549422  0.15766987    -0.11700
C760        C  0.49675179  0.35429199  0.12234155     0.05400
C761        C  0.47085748  0.32004384  0.11551067    -0.06900
C762        C  0.46687942  0.28999154  0.14587198    -0.07700
C763        C  0.48928697  0.29277877  0.18235274    -0.02200
C764        C  0.51813096  0.32473366  0.18720490     0.04600
N765        N  0.54440319  0.32665002  0.22233942     0.67100
H766        H  0.54247947  0.38043556  0.16239551     0.16000
H767        H  0.44420690  0.26602987  0.14202237     0.15700
N768        N  0.44660202  0.31639009  0.07909979     0.74800
O769        O  0.57972932  0.31078636  0.22027586    -0.38700
O770        O  0.53740560  0.35317612  0.24956855    -0.38600
O771        O  0.45790075  0.29168863  0.05160438    -0.39300
O772        O  0.40990463  0.32888434  0.07925608    -0.39400
C773        C  0.62349463  0.17068503  0.03833303    -0.11700
C774        C  0.63181264  0.14261508  0.00651579     0.05400
C775        C  0.66715775  0.14809183  0.98249358    -0.06900
C776        C  0.69434078  0.17969279  0.99183139    -0.07700
C777        C  0.68776748  0.20518549  0.02555503    -0.02200
C778        C  0.65164707  0.20154378  0.04837231     0.04600
N779        N  0.64509062  0.22665782  0.08363672     0.67100
H780        H  0.59624809  0.16714215  0.05689728     0.16000
H781        H  0.72255968  0.18228088  0.97457177     0.15700
N782        N  0.67700872  0.12117024  0.94951556     0.74800
O783        O  0.62991961  0.26209673  0.07927933    -0.38700
O784        O  0.66202579  0.21708048  0.11717738    -0.38600
O785        O  0.67384827  0.13455263  0.91338833    -0.39300
O786        O  0.70100662  0.09145626  0.95646618    -0.39400
C787        C  0.34921880  0.85476174  0.94896310    -0.11700
C788        C  0.37179915  0.85612205  0.98542356     0.05400
C789        C  0.36718684  0.82457061  0.01469026    -0.06900
C790        C  0.33823614  0.79350685  0.00792115    -0.07700
C791        C  0.31438921  0.79327726  0.97207872    -0.02200
C792        C  0.32087140  0.82361048  0.94194789     0.04600
N793        N  0.29856362  0.82337327  0.90411157     0.67100
H794        H  0.35366806  0.87807846  0.92569844     0.16000
H795        H  0.33269002  0.77100308  0.03169985     0.15700
N796        N  0.38949822  0.82516890  0.05247779     0.74800
O797        O  0.26904521  0.84810882  0.89918652    -0.38700
O798        O  0.31488324  0.80731696  0.87302520    -0.38600
O799        O  0.37230160  0.83906953  0.08412605    -0.39300
O800        O  0.42107911  0.80292573  0.05635751    -0.39400
C801        C  0.63858705  0.83257834  0.96038982    -0.11700
C802        C  0.63937125  0.86117272  0.99269139     0.05400
C803        C  0.66626036  0.85472740  0.02604091    -0.06900
C804        C  0.69223144  0.82060337  0.02610991    -0.07700
C805        C  0.69293198  0.79325203  0.99305165    -0.02200
C806        C  0.66587642  0.79923397  0.95994422     0.04600
N807        N  0.66832607  0.77378689  0.92442557     0.67100
H808        H  0.61779664  0.83711235  0.93472053     0.16000
H809        H  0.71427725  0.81701740  0.05088391     0.15700
N810        N  0.66903865  0.88316888  0.05925419     0.74800
O811        O  0.64874274  0.74050155  0.92339637    -0.38700
O812        O  0.69575384  0.78042633  0.89812490    -0.38600
O813        O  0.65864524  0.87165233  0.09455849    -0.39300
O814        O  0.69334550  0.91302169  0.05611905    -0.39400
C815        C  0.34696752  0.15245653  0.00576526    -0.11700
C816        C  0.36639884  0.13322057  0.97293744     0.05400
C817        C  0.36101982  0.14854937  0.93305245    -0.06900
C818        C  0.33441622  0.18120246  0.92621201    -0.07700
C819        C  0.31548960  0.20113578  0.95886127    -0.02200
C820        C  0.32217344  0.18696921  0.99921998     0.04600
N821        N  0.30231430  0.20555088  0.03345824     0.67100
H822        H  0.35100700  0.14059327  0.03641108     0.16000
H823        H  0.32816101  0.19091151  0.89500866     0.15700
N824        N  0.38392489  0.13285520  0.89943797     0.74800
O825        O  0.26973635  0.18977405  0.04688444    -0.38700
O826        O  0.32291207  0.22875228  0.05661531    -0.38600
O827        O  0.36630376  0.11005266  0.87365510    -0.39300
O828        O  0.41567551  0.15198812  0.88884686    -0.39400
C829        C  0.47524994  0.13865888  0.82252352    -0.11700
C830        C  0.50573681  0.13808954  0.85320383     0.05400
C831        C  0.53682935  0.16811616  0.85143595    -0.06900
C832        C  0.53715137  0.19719378  0.81956376    -0.07700
C833        C  0.50587076  0.19888210  0.78972731    -0.02200
C834        C  0.47410698  0.16934645  0.79199116     0.04600
N835        N  0.43857248  0.17198779  0.76628002     0.67100
H836        H  0.45082147  0.11619801  0.82343302     0.16000
H837        H  0.56223268  0.21885458  0.81820308     0.15700
N838        N  0.56989687  0.16815159  0.88022344     0.74800
O839        O  0.43313004  0.14492340  0.73920816    -0.38700
O840        O  0.40782526  0.19173889  0.77909055    -0.38600
O841        O  0.60334071  0.15151739  0.87010924    -0.39300
O842        O  0.56984672  0.19426686  0.90873398    -0.39400
C843        C  0.53842603  0.86435285  0.82377802    -0.11700
C844        C  0.50699339  0.86196424  0.85279613     0.05400
C845        C  0.47989358  0.82827476  0.85095617    -0.06900
C846        C  0.48466928  0.79815700  0.82064641    -0.07700
C847        C  0.51688732  0.79966789  0.79234649    -0.02200
C848        C  0.54457822  0.83318780  0.79466650     0.04600
N849        N  0.58037747  0.83533643  0.76967656     0.67100
H850        H  0.55928534  0.89008802  0.82453112     0.16000
H851        H  0.46239773  0.77364840  0.81878710     0.15700
N852        N  0.44587380  0.82509492  0.87807092     0.74800
O853        O  0.58210290  0.86282599  0.74250456    -0.38700
O854        O  0.61357958  0.82081016  0.78369291    -0.38600
O855        O  0.41089465  0.83627224  0.86542774    -0.39300
O856        O  0.44824536  0.80038742  0.90776483    -0.39400
C857        C  0.47149082  0.86008560  0.15674437    -0.11700
C858        C  0.50225027  0.85745477  0.12697335     0.05400
C859        C  0.52917082  0.82318972  0.12847313    -0.06900
C860        C  0.52685766  0.79476558  0.16081815    -0.07700
C861        C  0.49610445  0.79726203  0.19055638    -0.02200
C862        C  0.46709990  0.82981075  0.18719993     0.04600
N863        N  0.43053389  0.83051819  0.21111148     0.67100
H864        H  0.44912382  0.88477600  0.15501506     0.16000
H865        H  0.54916705  0.77007791  0.16234997     0.15700
N866        N  0.55945635  0.81645342  0.09786294     0.74800
O867        O  0.42562508  0.85919836  0.23657322    -0.38700
O868        O  0.39910719  0.81287953  0.19690538    -0.38600
O869        O  0.59658926  0.82115688  0.10768758    -0.39300
O870        O  0.55093658  0.79252713  0.06869347    -0.39400
C871        C  0.51942588  0.15764148  0.14587775    -0.11700
C872        C  0.48518180  0.13682102  0.12999590     0.05400
C873        C  0.44600969  0.14761896  0.14524495    -0.06900
C874        C  0.44196803  0.17710856  0.17663672    -0.07700
C875        C  0.47610815  0.19793934  0.19258059    -0.02200
C876        C  0.51525510  0.18828619  0.17624532     0.04600
N877        N  0.55137069  0.20833571  0.19078491     0.67100
H878        H  0.54973642  0.15024701  0.13444024     0.16000
H879        H  0.41164331  0.18499750  0.18765398     0.15700
N880        N  0.40963269  0.13149793  0.12700559     0.74800
O881        O  0.57329686  0.19054458  0.21743526    -0.38700
O882        O  0.56739672  0.23568182  0.16874000    -0.38600
O883        O  0.38816387  0.10637172  0.14691207    -0.39300
O884        O  0.39317449  0.15134213  0.09807083    -0.39400
C885        C  0.32898207  0.98506786  0.12123340    -0.11700
C886        C  0.36977520  0.99317241  0.13158492     0.05400
C887        C  0.37951598  0.00282973  0.17294726    -0.06900
C888        C  0.34806001  0.00897132  0.20109252    -0.07700
C889        C  0.30691575  0.00447392  0.18973800    -0.02200
C890        C  0.29771864  0.99005450  0.14969758     0.04600
N891        N  0.25685625  0.98029381  0.13690133     0.67100
H892        H  0.32090634  0.97549866  0.09045425     0.16000
H893        H  0.35651674  0.01954490  0.23111466     0.15700
N894        N  0.42081503  0.00800306  0.18710157     0.74800
O895        O  0.23870642  0.00425164  0.11230867    -0.38700
O896        O  0.24583389  0.94323064  0.13804289    -0.38600
O897        O  0.43491231  0.04381637  0.19095058    -0.39300
O898        O  0.43773130  0.97904237  0.20666969    -0.39400
C899        C  0.68542298  0.95694557  0.81173875    -0.11700
C900        C  0.69252168  0.99115873  0.78688265     0.05400
C901        C  0.67150887  0.02808826  0.79494645    -0.06900
C902        C  0.64376557  0.03009345  0.82775662    -0.07700
C903        C  0.63784983  0.99596687  0.85351831    -0.02200
C904        C  0.65855168  0.95897118  0.84480482     0.04600
N905        N  0.65312357  0.92311090  0.86932062     0.67100
H906        H  0.70267583  0.92887945  0.80670439     0.16000
H907        H  0.62779524  0.05865277  0.83395369     0.15700
N908        N  0.68076479  0.06443081  0.77231891     0.74800
O909        O  0.62927257  0.89550868  0.85654068    -0.38700
O910        O  0.68075413  0.91352772  0.89485565    -0.38600
O911        O  0.66195263  0.07168670  0.73921499    -0.39300
O912        O  0.71255470  0.08468990  0.78111260    -0.39400
C913        C  0.29875880  0.98889722  0.82134552    -0.11700
C914        C  0.31171253  0.96585131  0.78743636     0.05400
C915        C  0.35320990  0.95408909  0.78486479    -0.06900
C916        C  0.38055945  0.96511271  0.81626608    -0.07700
C917        C  0.36719693  0.98645344  0.85134999    -0.02200
C918        C  0.32555326  0.99854537  0.85348164     0.04600
N919        N  0.30930988  0.01971223  0.88813908     0.67100
H920        H  0.26678635  0.99790564  0.82387390     0.16000
H921        H  0.41211095  0.95465652  0.81420005     0.15700
N922        N  0.36754260  0.92807744  0.75276513     0.74800
O923        O  0.30210721  0.05765545  0.88509150    -0.38700
O924        O  0.29015337  0.99934526  0.91472820    -0.38600
O925        O  0.39185186  0.94256398  0.72656663    -0.39300
O926        O  0.36583903  0.88968438  0.75752335    -0.39400
C927        C  0.44517684  0.15804260  0.35709314    -0.11700
C928        C  0.47845181  0.13143870  0.35109496     0.05400
C929        C  0.49750694  0.13172182  0.31237098    -0.06900
C930        C  0.48629187  0.16028045  0.28265418    -0.07700
C931        C  0.45448829  0.18806746  0.28886060    -0.02200
C932        C  0.43200102  0.18501345  0.32604201     0.04600
N933        N  0.39475662  0.20742794  0.33238714     0.67100
H934        H  0.42802719  0.15661116  0.38541066     0.16000
H935        H  0.50481794  0.16168665  0.25549807     0.15700
N936        N  0.53001298  0.10478775  0.30230980     0.74800
O937        O  0.36164077  0.19227465  0.31920156    -0.38700
O938        O  0.39319354  0.23321354  0.36116757    -0.38600
O939        O  0.52157467  0.07569110  0.27821324    -0.39300
O940        O  0.56558372  0.11997018  0.30145058    -0.39400
C941        C  0.45637219  0.81698317  0.31332506    -0.11700
C942        C  0.48897084  0.81086657  0.28631605     0.05400
C943        C  0.52532577  0.83379095  0.29112271    -0.06900
C944        C  0.52866981  0.86146940  0.32367511    -0.07700
C945        C  0.49677185  0.86538199  0.35196879    -0.02200
C946        C  0.46010686  0.84372505  0.34612490     0.04600
N947        N  0.42595150  0.84923845  0.37264226     0.67100
H948        H  0.42853334  0.79907214  0.31014547     0.16000
H949        H  0.55670274  0.87887800  0.32770507     0.15700
N950        N  0.56014207  0.82697681  0.26561903     0.74800
O951        O  0.39873830  0.87505877  0.36267203    -0.38700
O952        O  0.41728631  0.82123110  0.39783062    -0.38600
O953        O  0.56653206  0.85126814  0.23626552    -0.39300
O954        O  0.58937577  0.80508366  0.27889523    -0.39400
C955        C  0.47260658  0.16310602  0.62766490    -0.11700
C956        C  0.49900697  0.12960475  0.63161589     0.05400
C957        C  0.52291299  0.12512886  0.66770111    -0.06900
C958        C  0.52187401  0.15571528  0.69769305    -0.07700
C959        C  0.49656696  0.19009592  0.69268419    -0.02200
C960        C  0.47070215  0.19301350  0.65787833     0.04600
N961        N  0.44324726  0.22693727  0.65206546     0.67100
H962        H  0.45341131  0.16609385  0.60081480     0.16000
H963        H  0.54269454  0.15375343  0.72362860     0.15700
N964        N  0.55057726  0.09142017  0.67311294     0.74800
O965        O  0.40669849  0.22371604  0.66418150    -0.38700
O966        O  0.45163912  0.25381350  0.62557280    -0.38600
O967        O  0.58840689  0.09702187  0.66745053    -0.39300
O968        O  0.53922863  0.06087474  0.69387822    -0.39400
C969        C  0.48813271  0.86625974  0.66348272    -0.11700
C970        C  0.51403701  0.86402297  0.62946663     0.05400
C971        C  0.54735187  0.83659072  0.62971964    -0.06900
C972        C  0.55342534  0.81098230  0.66321512    -0.07700
C973        C  0.52533466  0.81015951  0.69560916    -0.02200
C974        C  0.49286629  0.83906769  0.69624482     0.04600
N975        N  0.46284721  0.83987649  0.72791774     0.67100
H976        H  0.46297525  0.88816262  0.66384211     0.16000
H977        H  0.57875130  0.78927562  0.66249784     0.15700
N978        N  0.57537879  0.83422481  0.59637100     0.74800
O979        O  0.46454574  0.86832308  0.75407085    -0.38700
O980        O  0.42885869  0.82250012  0.72158708    -0.38600
O981        O  0.60907263  0.85289756  0.59918913    -0.39300
O982        O  0.57213709  0.80500198  0.57124624    -0.39400
C983        C  0.33617757  0.96637605  0.34149068    -0.11700
C984        C  0.36137623  0.00021313  0.35161281     0.05400
C985        C  0.35563572  0.03698726  0.32926108    -0.06900
C986        C  0.32500333  0.03998370  0.29905438    -0.07700
C987        C  0.30099002  0.00618734  0.28804787    -0.02200
C988        C  0.30676820  0.96902873  0.30932487     0.04600
N989        N  0.28366575  0.93377126  0.29754713     0.67100
H990        H  0.34001641  0.93767673  0.35782197     0.16000
H991        H  0.32040347  0.06887891  0.28318540     0.15700
N992        N  0.38077814  0.07192140  0.33653480     0.74800
O993        O  0.24921831  0.92747235  0.31378793    -0.38700
O994        O  0.29233969  0.91578399  0.26448027    -0.38600
O995        O  0.41080863  0.07791430  0.31309916    -0.39300
O996        O  0.36573083  0.10195811  0.35571104    -0.39400
C997        C  0.64279914  0.96425287  0.65632771    -0.11700
C998        C  0.63998060  0.99817818  0.62952646     0.05400
C999        C  0.67047469  0.02894270  0.63261456    -0.06900
C1000       C  0.70085400  0.02665405  0.66332487    -0.07700
C1001       C  0.70336592  0.99317006  0.69010049    -0.02200
C1002       C  0.67512504  0.96089879  0.68525340     0.04600
N1003       N  0.68134088  0.92327339  0.70700584     0.67100
H1004       H  0.62122045  0.93920453  0.65317724     0.16000
H1005       H  0.72282721  0.05122850  0.66621651     0.15700
N1006       N  0.67146654  0.06277325  0.60480887     0.74800
O1007       O  0.65594503  0.91209855  0.73372979    -0.38700
O1008       O  0.71446764  0.90351456  0.70272476    -0.38600
O1009       O  0.65974581  0.09755483  0.61711084    -0.39300
O1010       O  0.69532452  0.06087022  0.57456166    -0.39400
C1011       C  0.35272909  0.01461916  0.65641105    -0.11700
C1012       C  0.36366942  0.98359563  0.62869948     0.05400
C1013       C  0.34430111  0.94526687  0.63165352    -0.06900
C1014       C  0.31482081  0.93812660  0.66188010    -0.07700
C1015       C  0.30343017  0.96897828  0.68959342    -0.02200
C1016       C  0.32248311  0.00780807  0.68645974     0.04600
N1017       N  0.31062224  0.04108660  0.71221475     0.67100
H1018       H  0.36717556  0.04443507  0.65427280     0.16000
H1019       H  0.30112199  0.90801905  0.66432642     0.15700
N1020       N  0.35529194  0.91296992  0.60442050     0.74800
O1021       O  0.33326539  0.05016280  0.74231052    -0.38700
O1022       O  0.28666173  0.06809239  0.69785722    -0.38600
O1023       O  0.38963172  0.89540414  0.60893022    -0.39300
O1024       O  0.33648101  0.91000080  0.57068572    -0.39400
C1025       C  0.68476367  0.01431086  0.18407840    -0.11700
C1026       C  0.68499314  0.97599628  0.20343320     0.05400
C1027       C  0.65736697  0.94566710  0.19065349    -0.06900
C1028       C  0.63169709  0.95308885  0.15687332    -0.07700
C1029       C  0.63353654  0.99058050  0.13546533    -0.02200
C1030       C  0.65927879  0.02192513  0.15033781     0.04600
N1031       N  0.66027427  0.06153222  0.13171945     0.67100
H1032       H  0.70658487  0.03755637  0.19350564     0.16000
H1033       H  0.61076875  0.92929101  0.14682627     0.15700
N1034       N  0.65602777  0.90702389  0.21130430     0.74800
O1035       O  0.64095734  0.09053221  0.14859272    -0.38700
O1036       O  0.68965094  0.07000924  0.10820634    -0.38600
O1037       O  0.63659949  0.90438580  0.24449958    -0.39300
O1038       O  0.68146611  0.87927377  0.20205785    -0.39400
C1039       C  0.67829235  0.01050529  0.29871634    -0.11700
C1040       C  0.70242166  0.97490625  0.29794139     0.05400
C1041       C  0.69590474  0.94454843  0.32802646    -0.06900
C1042       C  0.66615945  0.95044364  0.35865040    -0.07700
C1043       C  0.64129889  0.98572698  0.35870464    -0.02200
C1044       C  0.64811350  0.01582941  0.32872247     0.04600
N1045       N  0.62062957  0.04930322  0.32522211     0.67100
H1046       H  0.68218540  0.03369994  0.27529976     0.16000
H1047       H  0.66107168  0.92653185  0.38112425     0.15700
N1048       N  0.71695093  0.90617761  0.32562599     0.74800
O1049       O  0.58808132  0.04286626  0.30546950    -0.38700
O1050       O  0.62162353  0.07752232  0.35162682    -0.38600
O1051       O  0.74859630  0.89996908  0.34719070    -0.39300
O1052       O  0.70695035  0.88054915  0.29843997    -0.39400
C1053       C  0.34211154  0.86496233  0.44203709    -0.11700
C1054       C  0.36334978  0.86008742  0.47926508     0.05400
C1055       C  0.35020312  0.82969226  0.50699101    -0.06900
C1056       C  0.31645011  0.80514922  0.49682688    -0.07700
C1057       C  0.29756998  0.80803295  0.45828377    -0.02200
C1058       C  0.31121725  0.83774483  0.43026720     0.04600
N1059       N  0.29663504  0.83873571  0.38892345     0.67100
H1060       H  0.35108446  0.88893991  0.42099482     0.16000
H1061       H  0.30712956  0.78121338  0.51788078     0.15700
N1062       N  0.37130419  0.82181225  0.54461410     0.74800
O1063       O  0.27391176  0.86808297  0.37753334    -0.38700
O1064       O  0.31571217  0.81834948  0.36220114    -0.38600
O1065       O  0.35169436  0.82525826  0.57764477    -0.39300
O1066       O  0.40223472  0.79840522  0.54392473    -0.39400
C1067       C  0.64467897  0.83833599  0.46623552    -0.11700
C1068       C  0.64523113  0.86969207  0.49529831     0.05400
C1069       C  0.67954661  0.87344330  0.52201930    -0.06900
C1070       C  0.71040363  0.84332354  0.52156586    -0.07700
C1071       C  0.70821595  0.81057202  0.49400303    -0.02200
C1072       C  0.67613097  0.80936994  0.46487974     0.04600
N1073       N  0.67447763  0.77809138  0.43429370     0.67100
H1074       H  0.61960960  0.83626511  0.44435215     0.16000
H1075       H  0.73479484  0.84428984  0.54425039     0.15700
N1076       N  0.68274860  0.90628170  0.55094178     0.74800
O1077       O  0.65243155  0.74691947  0.44020667    -0.38700
O1078       O  0.68524909  0.78678735  0.39827755    -0.38600
O1079       O  0.67901413  0.89856568  0.58859725    -0.39300
O1080       O  0.70080923  0.93877671  0.54042012    -0.39400
C1081       C  0.70366849  0.16448729  0.48277722    -0.11700
C1082       C  0.70100601  0.18880794  0.51805753     0.05400
C1083       C  0.66649465  0.18424815  0.54386953    -0.06900
C1084       C  0.63485651  0.15762838  0.53309205    -0.07700
C1085       C  0.63673199  0.13440839  0.49732023    -0.02200
C1086       C  0.67206089  0.13706245  0.47242337     0.04600
N1087       N  0.67488013  0.11489250  0.43485947     0.67100
H1088       H  0.72907359  0.16846195  0.46189961     0.16000
H1089       H  0.60893545  0.15436631  0.55353083     0.15700
N1090       N  0.66286604  0.20652011  0.58137219     0.74800
O1091       O  0.66240452  0.13205369  0.40243745    -0.38700
O1092       O  0.70004534  0.08546860  0.43228287    -0.38600
O1093       O  0.63657094  0.23496271  0.58376241    -0.39300
O1094       O  0.67604605  0.19021133  0.61395762    -0.39400
C1095       C  0.31606391  0.18394335  0.51150104    -0.11700
C1096       C  0.29255709  0.18283917  0.47572138     0.05400
C1097       C  0.29825186  0.15140888  0.44715378    -0.06900
C1098       C  0.32918936  0.12236920  0.45373658    -0.07700
C1099       C  0.35532429  0.12559022  0.48797449    -0.02200
C1100       C  0.34768632  0.15582590  0.51770942     0.04600
N1101       N  0.37279698  0.15998939  0.55328492     0.67100
H1102       H  0.31201205  0.20884907  0.53314234     0.16000
H1103       H  0.33418237  0.09854848  0.43115834     0.15700
N1104       N  0.27464782  0.15061870  0.41025818     0.74800
O1105       O  0.39909484  0.18828223  0.55373197    -0.38700
O1106       O  0.35953249  0.14644723  0.58690024    -0.38600
O1107       O  0.28596195  0.17181952  0.38002035    -0.39300
O1108       O  0.23825331  0.13770329  0.41158475    -0.39400
C1109       C  0.85089352  0.02869559  0.63833518    -0.11700
C1110       C  0.86513290  0.99150697  0.62301306     0.05400
C1111       C  0.84458000  0.95490543  0.63218317    -0.06900
C1112       C  0.81142462  0.95569107  0.65934008    -0.07700
C1113       C  0.79875018  0.99295486  0.67701086    -0.02200
C1114       C  0.81829634  0.02973974  0.66562429     0.04600
N1115       N  0.80782636  0.06804398  0.68408828     0.67100
H1116       H  0.86573808  0.05700288  0.62965912     0.16000
H1117       H  0.79739417  0.92709383  0.66867664     0.15700
N1118       N  0.85775778  0.91703648  0.61446921     0.74800
O1119       O  0.82800893  0.07971928  0.71500907    -0.38700
O1120       O  0.78887317  0.09449200  0.66291429    -0.38600
O1121       O  0.88979707  0.89974312  0.62807207    -0.39300
O1122       O  0.84456392  0.90754350  0.57937672    -0.39400
C1123       C  0.18853889  0.99781877  0.68144672    -0.11700
C1124       C  0.20839514  0.95978413  0.67702408     0.05400
C1125       C  0.19601707  0.93313176  0.64544236    -0.06900
C1126       C  0.16441509  0.94501108  0.61882978    -0.07700
C1127       C  0.14344578  0.98227509  0.62419394    -0.02200
C1128       C  0.15581305  0.00904713  0.65569394     0.04600
N1129       N  0.13582247  0.04758714  0.66196228     0.67100
H1130       H  0.19710379  0.01797673  0.70644844     0.16000
H1131       H  0.15521283  0.92427387  0.59451480     0.15700
N1132       N  0.21428506  0.89352442  0.64051572     0.74800
O1133       O  0.10670796  0.04968993  0.68720036    -0.38700
O1134       O  0.15426910  0.08005133  0.65205204    -0.38600
O1135       O  0.19571377  0.86247860  0.65407678    -0.39300
O1136       O  0.24094274  0.88864569  0.61305536    -0.39400
C1137       C  0.17799500  0.01870122  0.36860625    -0.11700
C1138       C  0.14178404  0.99820668  0.35673263     0.05400
C1139       C  0.13884856  0.98231276  0.31672207    -0.06900
C1140       C  0.17056045  0.98925200  0.28911584    -0.07700
C1141       C  0.20490920  0.01270378  0.30009653    -0.02200
C1142       C  0.20924905  0.02641995  0.34056840     0.04600
N1143       N  0.24277322  0.05177090  0.35264749     0.67100
H1144       H  0.18104054  0.03131273  0.39916910     0.16000
H1145       H  0.16733757  0.97800159  0.25802373     0.15700
N1146       N  0.10385354  0.95975482  0.30313561     0.74800
O1147       O  0.24159789  0.08948886  0.34404101    -0.38700
O1148       O  0.26777694  0.03901578  0.37949039    -0.38600
O1149       O  0.07808271  0.97721623  0.27989532    -0.39300
O1150       O  0.10529312  0.92106227  0.30394952    -0.39400
C1151       C  0.86535580  0.95672017  0.33673379    -0.11700
C1152       C  0.86206309  0.99315376  0.35864681     0.05400
C1153       C  0.82594857  0.01712470  0.35484359    -0.06900
C1154       C  0.79528380  0.00534823  0.32684119    -0.07700
C1155       C  0.79931612  0.96897327  0.30428373    -0.02200
C1156       C  0.83402522  0.94386026  0.31097930     0.04600
N1157       N  0.83816654  0.90490536  0.29172894     0.67100
H1158       H  0.89201990  0.93711349  0.34076469     0.16000
H1159       H  0.76918424  0.02543688  0.32168145     0.15700
N1160       N  0.82074847  0.05439910  0.37713136     0.74800
O1161       O  0.86234045  0.90172174  0.26190438    -0.38700
O1162       O  0.82883527  0.87315684  0.31171372    -0.38600
O1163       O  0.82171448  0.08785749  0.35771939    -0.39300
O1164       O  0.80271885  0.05326205  0.41120249    -0.39400
C1165       C  0.14611792  0.82821354  0.50728927    -0.11700
C1166       C  0.14211874  0.86000900  0.47834881     0.05400
C1167       C  0.16882279  0.86020515  0.44449508    -0.06900
C1168       C  0.19736816  0.82839268  0.43943283    -0.07700
C1169       C  0.20233513  0.79705386  0.46857358    -0.02200
C1170       C  0.17659007  0.79752631  0.50338333     0.04600
N1171       N  0.18272197  0.76944332  0.53647014     0.67100
H1172       H  0.12649875  0.82812291  0.53398203     0.16000
H1173       H  0.21597131  0.82805964  0.41217315     0.15700
N1174       N  0.16729157  0.89219568  0.41455795     0.74800
O1175       O  0.20672077  0.77960103  0.56515579    -0.38700
O1176       O  0.15565806  0.74276665  0.54342126    -0.38600
O1177       O  0.19328623  0.92072592  0.41662611    -0.39300
O1178       O  0.14933815  0.88564973  0.38091532    -0.39400
C1179       C  0.86395203  0.83338015  0.52712575    -0.11700
C1180       C  0.86640768  0.85894188  0.49264024     0.05400
C1181       C  0.83681567  0.85469096  0.46119673    -0.06900
C1182       C  0.80623019  0.82421793  0.46407471    -0.07700
C1183       C  0.80402079  0.79847575  0.49866672    -0.02200
C1184       C  0.83202191  0.80482436  0.53108007     0.04600
N1185       N  0.82519825  0.78593930  0.56990957     0.67100
H1186       H  0.88530011  0.83755933  0.55234517     0.16000
H1187       H  0.78424943  0.82053999  0.43935584     0.15700
N1188       N  0.83805883  0.88079075  0.42601714     0.74800
O1189       O  0.85008904  0.75951177  0.58363594    -0.38700
O1190       O  0.79440020  0.79623631  0.59088589    -0.38600
O1191       O  0.86642370  0.87618709  0.40026607    -0.39300
O1192       O  0.81712219  0.91346282  0.42563375    -0.39400
C1193       C  0.83891314  0.13596711  0.53439704    -0.11700
C1194       C  0.86266350  0.13506932  0.49842716     0.05400
C1195       C  0.85351362  0.16419824  0.46737485    -0.06900
C1196       C  0.82193325  0.19334438  0.47300126    -0.07700
C1197       C  0.79901249  0.19455620  0.50918509    -0.02200
C1198       C  0.80780410  0.16566651  0.54006260     0.04600
N1199       N  0.78671596  0.16783554  0.57822644     0.67100
H1200       H  0.84541990  0.11425910  0.55877616     0.16000
H1201       H  0.81546861  0.21553841  0.44907529     0.15700
N1202       N  0.87484682  0.16403745  0.42932206     0.74800
O1203       O  0.75641419  0.14470285  0.58435769    -0.38700
O1204       O  0.79248044  0.19820528  0.60149654    -0.38600
O1205       O  0.85557364  0.15345366  0.39747891    -0.39300
O1206       O  0.90630368  0.18614810  0.42560272    -0.39400
C1207       C  0.19885358  0.17475770  0.50728981    -0.11700
C1208       C  0.19907492  0.19978255  0.47210120     0.05400
C1209       C  0.16876910  0.19308038  0.44183707    -0.06900
C1210       C  0.13901399  0.16226068  0.44702911    -0.07700
C1211       C  0.13899806  0.13702111  0.48197142    -0.02200
C1212       C  0.16912805  0.14377503  0.51238872     0.04600
N1213       N  0.16858892  0.12050662  0.54944305     0.67100
H1214       H  0.22176826  0.17946641  0.53095398     0.16000
H1215       H  0.11657662  0.15717983  0.42302198     0.15700
N1216       N  0.16918671  0.21606938  0.40464993     0.74800
O1217       O  0.18836167  0.08718885  0.55157989    -0.38700
O1218       O  0.14189956  0.12855259  0.57614106    -0.38600
O1219       O  0.19689312  0.20979978  0.37851974    -0.39300
O1220       O  0.14553182  0.24650163  0.40062599    -0.39400
C1221       C  0.97113257  0.62398955  0.16099772    -0.11700
C1222       C  0.99880089  0.63222976  0.12912148     0.05400
C1223       C  0.02431507  0.66679005  0.13192135    -0.06900
C1224       C  0.02119850  0.69259556  0.16571090    -0.07700
C1225       C  0.99119637  0.68628310  0.19571033    -0.02200
C1226       C  0.96665584  0.65104101  0.19383044     0.04600
N1227       N  0.93535740  0.64353178  0.22322753     0.67100
H1228       H  0.95156632  0.59717120  0.15953532     0.16000
H1229       H  0.04048359  0.71963247  0.16701134     0.15700
N1230       N  0.05390946  0.67617071  0.10136717     0.74800
O1231       O  0.89977868  0.65767481  0.21690462    -0.38700
O1232       O  0.94003335  0.61427389  0.24811682    -0.38600
O1233       O  0.04470896  0.70221489  0.07417814    -0.39300
O1234       O  0.09122848  0.67043360  0.10993940    -0.39400
C1235       C  0.01173469  0.79046328  0.32686514    -0.11700
C1236       C  0.97401534  0.78928165  0.30656587     0.05400
C1237       C  0.94378000  0.81889312  0.31522497    -0.06900
C1238       C  0.95321280  0.85188211  0.34085976    -0.07700
C1239       C  0.99205264  0.85474827  0.35941945    -0.02200
C1240       C  0.02076206  0.82253626  0.35380309     0.04600
N1241       N  0.06039106  0.82324031  0.37254716     0.67100
H1242       H  0.03527582  0.76800764  0.31972755     0.16000
H1243       H  0.93006958  0.87500358  0.34671007     0.15700
N1244       N  0.90374690  0.81576174  0.29717737     0.74800
O1245       O  0.06690086  0.80055659  0.40326382    -0.38700
O1246       O  0.09048184  0.83387743  0.35092136    -0.38600
O1247       O  0.87874658  0.78994144  0.31120948    -0.39300
O1248       O  0.89743122  0.83031440  0.26193989    -0.39400
C1249       C  0.99148734  0.32622984  0.79399073    -0.11700
C1250       C  0.02878594  0.30498959  0.79222869     0.05400
C1251       C  0.05863656  0.31155442  0.82330854    -0.06900
C1252       C  0.04956141  0.33699267  0.85646554    -0.07700
C1253       C  0.01138599  0.35637582  0.85924299    -0.02200
C1254       C  0.98257713  0.35170312  0.82723357     0.04600
N1255       N  0.94320353  0.37078526  0.82914194     0.67100
H1256       H  0.96792636  0.32067771  0.77109730     0.16000
H1257       H  0.07267890  0.34200980  0.87995184     0.15700
N1258       N  0.09809856  0.29216630  0.82212138     0.74800
O1259       O  0.93818608  0.40536958  0.81254094    -0.38700
O1260       O  0.91222934  0.34913398  0.83712211    -0.38600
O1261       O  0.12852541  0.31304115  0.81073873    -0.39300
O1262       O  0.10441638  0.26064479  0.84377871    -0.39400
C1263       C  0.97797278  0.17043263  0.68455653    -0.11700
C1264       C  0.01037854  0.19862516  0.68347076     0.05400
C1265       C  0.04026753  0.19529450  0.65268929    -0.06900
C1266       C  0.03735705  0.16371200  0.62386221    -0.07700
C1267       C  0.00592190  0.13452059  0.62622421    -0.02200
C1268       C  0.97569961  0.13832649  0.65652547     0.04600
N1269       N  0.94214604  0.11041056  0.65891784     0.67100
H1270       H  0.95532446  0.17226291  0.70870786     0.16000
H1271       H  0.06080808  0.16086694  0.60060300     0.15700
N1272       N  0.07566331  0.22099860  0.65252401     0.74800
O1273       O  0.90810515  0.12088861  0.64346646    -0.38700
O1274       O  0.94309997  0.08229545  0.68551952    -0.38600
O1275       O  0.10852775  0.20786746  0.66856128    -0.39300
O1276       O  0.07729367  0.25020556  0.62721064    -0.39400
C1277       C  0.03395603  0.65892986  0.79309599    -0.11700
C1278       C  0.99653593  0.67876169  0.78529335     0.05400
C1279       C  0.96139447  0.66714635  0.80742997    -0.06900
C1280       C  0.96483017  0.63789758  0.83834967    -0.07700
C1281       C  0.00285161  0.62122772  0.84908014    -0.02200
C1282       C  0.03735285  0.63016783  0.82487140     0.04600
N1283       N  0.07629389  0.61170964  0.83309249     0.67100
H1284       H  0.06121392  0.66796887  0.77653134     0.16000
H1285       H  0.93769344  0.62870230  0.85445133     0.15700
N1286       N  0.92241933  0.68630850  0.80050627     0.74800
O1287       O  0.08695765  0.58079326  0.81244631    -0.38700
O1288       O  0.10348117  0.63257288  0.85107266    -0.38600
O1289       O  0.89547438  0.66714677  0.78034646    -0.39300
O1290       O  0.91125262  0.71493334  0.82399786    -0.39400
C1291       C  0.03519953  0.82415848  0.68493337    -0.11700
C1292       C  0.00569960  0.79299479  0.68313613     0.05400
C1293       C  0.97659763  0.79307665  0.65093359    -0.06900
C1294       C  0.97736542  0.82475163  0.62184342    -0.07700
C1295       C  0.00559049  0.85709599  0.62531020    -0.02200
C1296       C  0.03489465  0.85640141  0.65703927     0.04600
N1297       N  0.06483863  0.88797177  0.66140595     0.67100
H1298       H  0.05768646  0.82448041  0.70955763     0.16000
H1299       H  0.95471651  0.82500229  0.59738887     0.15700
N1300       N  0.94465727  0.76322172  0.64856896     0.74800
O1301       O  0.05871772  0.91615405  0.68716350    -0.38700
O1302       O  0.10096196  0.88098859  0.64952909    -0.38600
O1303       O  0.90968489  0.77231121  0.66237250    -0.39300
O1304       O  0.94752084  0.73481648  0.62248954    -0.39400
C1305       C  0.16963938  0.63592165  0.49957020    -0.11700
C1306       C  0.13134779  0.64042101  0.48058529     0.05400
C1307       C  0.12336178  0.67617121  0.45679320    -0.06900
C1308       C  0.15442559  0.70529643  0.45116757    -0.07700
C1309       C  0.19316038  0.69956538  0.46894193    -0.02200
C1310       C  0.20035199  0.66494116  0.49405464     0.04600
N1311       N  0.23903414  0.65838662  0.51389077     0.67100
H1312       H  0.17608454  0.60933660  0.51857156     0.16000
H1313       H  0.14890861  0.73132825  0.43115680     0.15700
N1314       N  0.08512297  0.68227306  0.43589820     0.74800
O1315       O  0.24286860  0.66828088  0.55104980    -0.38700
O1316       O  0.26390304  0.63282992  0.49879502    -0.38600
O1317       O  0.05913871  0.70668490  0.45099384    -0.39300
O1318       O  0.08260529  0.67347136  0.39834831    -0.39400
C1319       C  0.87914806  0.32306294  0.52644869    -0.11700
C1320       C  0.87297823  0.35240379  0.49545774     0.05400
C1321       C  0.83988444  0.34783713  0.46803857    -0.06900
C1322       C  0.81277267  0.31528632  0.47310146    -0.07700
C1323       C  0.81650787  0.28842953  0.50648809    -0.02200
C1324       C  0.85082863  0.29157853  0.53270658     0.04600
N1325       N  0.85595516  0.26538792  0.56746123     0.67100
H1326       H  0.90484848  0.32600868  0.54748088     0.16000
H1327       H  0.78624807  0.31328374  0.45297863     0.15700
N1328       N  0.83225655  0.37657134  0.43585692     0.74800
O1329       O  0.88032596  0.23531359  0.56485018    -0.38700
O1330       O  0.84714880  0.27914744  0.60245150    -0.38600
O1331       O  0.84077982  0.36631558  0.39966488    -0.39300
O1332       O  0.80618978  0.40471513  0.44156509    -0.39400
C1333       C  0.17179076  0.29653287  0.49736963    -0.11700
C1334       C  0.19353575  0.29698556  0.46043224     0.05400
C1335       C  0.18771705  0.32975175  0.43245302    -0.06900
C1336       C  0.16176488  0.36225208  0.44282217    -0.07700
C1337       C  0.14094618  0.36221138  0.48008383    -0.02200
C1338       C  0.14542958  0.32897424  0.50725354     0.04600
N1339       N  0.12451534  0.32888099  0.54561431     0.67100
H1340       H  0.17718732  0.27237971  0.51961370     0.16000
H1341       H  0.15697039  0.38715482  0.42124109     0.15700
N1342       N  0.20910546  0.33105089  0.39410166     0.74800
O1343       O  0.09164008  0.30888902  0.54914748    -0.38700
O1344       O  0.13392519  0.35503462  0.57251997    -0.38600
O1345       O  0.21183149  0.29940408  0.37200184    -0.39300
O1346       O  0.22686480  0.36354451  0.38302356    -0.39400
C1347       C  0.85422759  0.65709078  0.46091452    -0.11700
C1348       C  0.86711068  0.63330095  0.49445914     0.05400
C1349       C  0.85633840  0.64537067  0.53423543    -0.06900
C1350       C  0.82941937  0.67826829  0.53998478    -0.07700
C1351       C  0.81505084  0.70133556  0.50653391    -0.02200
C1352       C  0.82828376  0.69111050  0.46678250     0.04600
N1353       N  0.81363490  0.71359374  0.43204924     0.67100
H1354       H  0.86409813  0.64911093  0.43029116     0.16000
H1355       H  0.81892983  0.68528904  0.57062427     0.15700
N1356       N  0.87518339  0.62627993  0.56899335     0.74800
O1357       O  0.83418179  0.74345047  0.41873811    -0.38700
O1358       O  0.77761137  0.70786992  0.41888900    -0.38600
O1359       O  0.90951272  0.63936668  0.58122163    -0.39300
O1360       O  0.86329122  0.59133800  0.58040843    -0.39400
C1361       C  0.18991664  0.54282951  0.31987203    -0.11700
C1362       C  0.19399054  0.51095156  0.29086579     0.05400
C1363       C  0.16796922  0.47661240  0.29374986    -0.06900
C1364       C  0.13961939  0.47410493  0.32560399    -0.07700
C1365       C  0.13754346  0.50460793  0.35561916    -0.02200
C1366       C  0.16202558  0.53976977  0.35222093     0.04600
N1367       N  0.15864390  0.57234201  0.38141657     0.67100
H1368       H  0.20989873  0.56930815  0.31844435     0.16000
H1369       H  0.12030556  0.44718306  0.32794811     0.15700
N1370       N  0.17245425  0.44211715  0.26730835     0.74800
O1371       O  0.18165991  0.57221650  0.41262193    -0.38700
O1372       O  0.12712551  0.59498189  0.38107012    -0.38600
O1373       O  0.19252262  0.41138185  0.27998232    -0.39300
O1374       O  0.14671265  0.43735703  0.23873793    -0.39400
C1375       C  0.84270240  0.53224462  0.29280848    -0.11700
C1376       C  0.81211165  0.50225555  0.28938572     0.05400
C1377       C  0.81249243  0.46849954  0.31666410    -0.06900
C1378       C  0.84180195  0.46642038  0.34786296    -0.07700
C1379       C  0.87081358  0.49734422  0.35236067    -0.02200
C1380       C  0.87187255  0.53009184  0.32433170     0.04600
N1381       N  0.90045545  0.56282858  0.32973620     0.67100
H1382       H  0.84205820  0.55893258  0.27309979     0.16000
H1383       H  0.84159161  0.44083717  0.36899718     0.15700
N1384       N  0.78280151  0.43648067  0.31385378     0.74800
O1385       O  0.93505709  0.56043422  0.31278698    -0.38700
O1386       O  0.89533973  0.58797104  0.35866578    -0.38600
O1387       O  0.79331101  0.40292902  0.29765211    -0.39300
O1388       O  0.75288039  0.43677703  0.33822010    -0.39400
C1389       C  0.15652917  0.53554552  0.69858135    -0.11700
C1390       C  0.18657756  0.50501915  0.70295185     0.05400
C1391       C  0.18622584  0.47092306  0.67647753    -0.06900
C1392       C  0.16025115  0.47076340  0.64229903    -0.07700
C1393       C  0.13257588  0.50307575  0.63586107    -0.02200
C1394       C  0.12890794  0.53429180  0.66562037     0.04600
N1395       N  0.09876349  0.56606552  0.66132886     0.67100
H1396       H  0.15659434  0.56193368  0.71874364     0.16000
H1397       H  0.16126446  0.44519424  0.62111766     0.15700
N1398       N  0.21303495  0.43681723  0.68374068     0.74800
O1399       O  0.06460043  0.56250965  0.67898492    -0.38700
O1400       O  0.10352788  0.59385267  0.63486194    -0.38600
O1401       O  0.20351488  0.41020399  0.71008306    -0.39300
O1402       O  0.24808076  0.43569669  0.66754056    -0.39400
C1403       C  0.88291512  0.46089562  0.66640657    -0.11700
C1404       C  0.86717971  0.47862128  0.63011916     0.05400
C1405       C  0.82460397  0.48638811  0.62760525    -0.06900
C1406       C  0.79935156  0.47610065  0.66054000    -0.07700
C1407       C  0.81480128  0.45622696  0.69578243    -0.02200
C1408       C  0.85734947  0.44926133  0.69868297     0.04600
N1409       N  0.87550126  0.42947050  0.73325158     0.67100
H1410       H  0.91543328  0.45429484  0.66939517     0.16000
H1411       H  0.76672719  0.48228213  0.65771616     0.15700
N1412       N  0.80591249  0.50367035  0.59184181     0.74800
O1413       O  0.89398662  0.45156754  0.75904355    -0.38700
O1414       O  0.88575463  0.39221445  0.73010007    -0.38600
O1415       O  0.78867416  0.47988798  0.56664012    -0.39300
O1416       O  0.79519947  0.54091177  0.59245571    -0.39400
C1417       C  0.01598392  0.66371556  0.28705108    -0.11700
C1418       C  0.98539883  0.69374423  0.29327074     0.05400
C1419       C  0.96210268  0.69116121  0.32982039    -0.06900
C1420       C  0.97044796  0.66046509  0.35868833    -0.07700
C1421       C  0.99933329  0.62947895  0.35155721    -0.02200
C1422       C  0.02179923  0.63078844  0.31455863     0.04600
N1423       N  0.04955460  0.59869131  0.30339527     0.67100
H1424       H  0.03491547  0.66497284  0.26000188     0.16000
H1425       H  0.95187503  0.65940344  0.38613086     0.15700
N1426       N  0.92713599  0.71649595  0.33715067     0.74800
O1427       O  0.03582394  0.56905643  0.28264807    -0.38700
O1428       O  0.08745006  0.60638801  0.30195923    -0.38600
O1429       O  0.89257546  0.70335839  0.32558537    -0.39300
O1430       O  0.92841565  0.74085001  0.36717886    -0.39400
C1431       C  0.98311069  0.32689741  0.63446625    -0.11700
C1432       C  0.01159989  0.35911901  0.63445960     0.05400
C1433       C  0.04123645  0.36003393  0.66629557    -0.06900
C1434       C  0.04286183  0.32850943  0.69581688    -0.07700
C1435       C  0.01466793  0.29597075  0.69587075    -0.02200
C1436       C  0.98355687  0.29618439  0.66502596     0.04600
N1437       N  0.95026228  0.26777716  0.66549807     0.67100
H1438       H  0.95919268  0.32634385  0.61125628     0.16000
H1439       H  0.06704679  0.32917879  0.71869495     0.15700
N1440       N  0.07124068  0.39175903  0.66842368     0.74800
O1441       O  0.91888903  0.27677771  0.68618504    -0.38700
O1442       O  0.94624476  0.24339492  0.63574430    -0.38600
O1443       O  0.06759929  0.41911683  0.69549769    -0.39300
O1444       O  0.10610810  0.38527062  0.65308090    -0.39400
C1445       C  0.02671048  0.66581891  0.62601642    -0.11700
C1446       C  0.99922120  0.63293738  0.62918706     0.05400
C1447       C  0.97347095  0.63102205  0.66377866    -0.06900
C1448       C  0.97442945  0.66234566  0.69301115    -0.07700
C1449       C  0.00242449  0.69486858  0.69071797    -0.02200
C1450       C  0.02956573  0.69594379  0.65676483     0.04600
N1451       N  0.06202924  0.72515404  0.65386173     0.67100
H1452       H  0.04763863  0.66708625  0.60035875     0.16000
H1453       H  0.95279841  0.66108577  0.71793880     0.15700
N1454       N  0.94572690  0.59776176  0.66990746     0.74800
O1455       O  0.09661451  0.71561996  0.66873924    -0.38700
O1456       O  0.06068119  0.75128566  0.62531651    -0.38600
O1457       O  0.95548707  0.57004353  0.69520310    -0.39300
O1458       O  0.90831305  0.60286830  0.66106222    -0.39400
C1459       C  0.06319290  0.32509402  0.18134709    -0.11700
C1460       C  0.02817897  0.30981666  0.20046374     0.05400
C1461       C  0.98909961  0.32530047  0.18979557    -0.06900
C1462       C  0.98558008  0.35361343  0.15797480    -0.07700
C1463       C  0.02062697  0.36789607  0.13821629    -0.02200
C1464       C  0.05982934  0.35586576  0.15199358     0.04600
N1465       N  0.09595303  0.37717366  0.13971429     0.67100
H1466       H  0.09329267  0.31326237  0.18957858     0.16000
H1467       H  0.95541967  0.36419471  0.14837658     0.15700
N1468       N  0.95267372  0.31121881  0.20938239     0.74800
O1469       O  0.10782669  0.40692063  0.16136474    -0.38700
O1470       O  0.12160019  0.35942708  0.11697250    -0.38600
O1471       O  0.93554550  0.33422001  0.23530217    -0.39300
O1472       O  0.93199570  0.28309492  0.19270337    -0.39400
C1473       C  0.97866421  0.17220207  0.29779182    -0.11700
C1474       C  0.01094925  0.20018693  0.30284600     0.05400
C1475       C  0.03601179  0.19790824  0.33779136    -0.06900
C1476       C  0.02990938  0.16646180  0.36595982    -0.07700
C1477       C  0.00011909  0.13625266  0.35895865    -0.02200
C1478       C  0.97353050  0.13977256  0.32513505     0.04600
N1479       N  0.94195938  0.11044057  0.31752830     0.67100
H1480       H  0.95913618  0.17389544  0.27083612     0.16000
H1481       H  0.05026389  0.16416969  0.39220849     0.15700
N1482       N  0.07040673  0.22430595  0.34291581     0.74800
O1483       O  0.90631247  0.11747048  0.33073030    -0.38700
O1484       O  0.94664346  0.08473556  0.28904706    -0.38600
O1485       O  0.06878456  0.25230424  0.36950927    -0.39300
O1486       O  0.10476705  0.21332905  0.32891353    -0.39400
C1487       C  0.98576132  0.29521002  0.31966695    -0.11700
C1488       C  0.02069514  0.29608069  0.29470635     0.05400
C1489       C  0.05002930  0.32744855  0.30150312    -0.06900
C1490       C  0.04399110  0.35639694  0.33263944    -0.07700
C1491       C  0.00948955  0.35511855  0.35788599    -0.02200
C1492       C  0.97990865  0.32427608  0.35097194     0.04600
N1493       N  0.94234233  0.32375543  0.37315371     0.67100
H1494       H  0.96241485  0.27224601  0.31423859     0.16000
H1495       H  0.06706713  0.37979739  0.33764560     0.15700
N1496       N  0.08706453  0.32988958  0.27849696     0.74800
O1497       O  0.91124077  0.34085812  0.35738380    -0.38700
O1498       O  0.93729587  0.29685121  0.40045400    -0.38600
O1499       O  0.09287682  0.36143307  0.25686516    -0.39300
O1500       O  0.11794115  0.30984667  0.29090767    -0.39400
loop_ 
_geom_bond_atom_site_label_1 
_geom_bond_atom_site_label_2 
_geom_bond_distance 
_geom_bond_site_symmetry_2 
_ccdc_geom_bond_type 
N1            C5   1.355       .  A
N1            C2   1.359       .  A
N1         C1488   1.452       .  S
C2            C3   1.381       .  A
C2         C1474   1.463       .  S
C3            C4   1.361       .  A
C3            H6   1.083       .  S
C4            C5   1.378       .  A
C4            H7   1.083       .  S
C5         C1460   1.453       .  S
O8           C19   1.292       .  A
O8          Eu44   2.470       .  S
O9           C20   1.294       .  A
O9          Eu43   2.488       .  S
O10          C21   1.286       .  A
O10         Eu16   2.425       .  S
O11          C22   1.285       .  A
O11         Eu16   2.422   1_655  S
O12          C22   1.295       .  A
O12         Eu46   2.479       .  S
O13          C21   1.292       .  A
O13         Eu45   2.463       .  S
O14          C20   1.297       .  A
O14         Eu16   2.500       .  S
O15          C19   1.294       .  A
O15         Eu16   2.484       .  S
Eu16         O26   2.357   1_455  S
Eu16         O18   2.356       .  S
Eu16         O17   2.346   1_455  S
Eu16         O24   2.352       .  S
O17         Eu46   2.361       .  S
O17         Eu43   2.340   1_655  S
O18         Eu44   2.344       .  S
O18         Eu45   2.363       .  S
C19        C1491   1.486       .  S
C20        C1432   1.503       .  S
C21        C1337   1.458       .  S
C22        C1320   1.468       .  S
H23          O24   0.972       .  S
O24         Eu45   2.366       .  S
O24         Eu43   2.351       .  S
H25          O26   0.986       .  S
O26         Eu44   2.349   1_655  S
O26         Eu46   2.364       .  S
O27          C50   1.290       .  A
O27         Eu43   2.456   1_655  S
O28          C51   1.291       .  A
O28         Eu44   2.473       .  S
O29          C52   1.297       .  A
O29         Eu45   2.492       .  S
O30          C53   1.295       .  A
O30         Eu46   2.485       .  S
O31          C54   1.291       .  A
O31         Eu46   2.458       .  S
O32          C55   1.295       .  A
O32         Eu45   2.478       .  S
O33          C56   1.283       .  A
O33         Eu47   2.419       .  S
O34          C57   1.282       .  A
O34         Eu47   2.409   1_655  S
O35          C56   1.299       .  A
O35         Eu45   2.492       .  S
O36          C57   1.298       .  A
O36         Eu46   2.495       .  S
O37          C52   1.282       .  A
O37         Eu43   2.406       .  S
O38          C55   1.284       .  A
O38         Eu44   2.419       .  S
O39          C54   1.284       .  A
O39         Eu44   2.418   1_655  S
O40          C53   1.288       .  A
O40         Eu43   2.433   1_655  S
O41          C50   1.296   1_455  A
O41         Eu47   2.488       .  S
O42          C51   1.296       .  A
O42         Eu47   2.483       .  S
Eu43         O61   2.354   1_455  S
Eu43         O49   2.362       .  S
Eu44         O48   2.355   1_455  S
Eu44         O59   2.344       .  S
Eu45         O59   2.343       .  S
Eu45         O49   2.351       .  S
Eu46         O48   2.359       .  S
Eu46         O61   2.355       .  S
Eu47         O48   2.350   1_455  S
Eu47         O59   2.337       .  S
Eu47         O61   2.360   1_455  S
Eu47         O49   2.351       .  S
C50        C1446   1.488       .  S
C51        C1421   1.494   1_455  S
C52        C1393   1.465       .  S
C53        C1404   1.490       .  S
C54        C1379   1.457       .  S
C55        C1365   1.464       .  S
C56        C1306   1.478       .  S
C57        C1348   1.464       .  S
H58          O59   0.930       .  S
H60          O61   0.977       .  S
N62          C66   1.363       .  A
N62          C63   1.365   1_455  A
N62        C1449   1.455       .  S
C63          C64   1.376       .  A
C63        C1278   1.468       .  S
C64          C65   1.360       .  A
C64          H67   1.083       .  S
C65          C66   1.384   1_655  A
C65          H68   1.083       .  S
C66        C1292   1.471       .  S
N69          C73   1.371       .  A
N69          C70   1.365       .  A
N69        C1435   1.464       .  S
C70          C71   1.378       .  A
C70        C1264   1.464       .  S
C71          C72   1.356       .  A
C71          H74   1.083       .  S
C72          C73   1.380       .  A
C72          H75   1.082       .  S
C73        C1250   1.473       .  S
N76          C80   1.363       .  A
N76          C77   1.367       .  A
N76        C1418   1.461       .  S
C77          C78   1.380       .  A
C77        C1225   1.469       .  S
C78          C79   1.351       .  A
C78          H81   1.083       .  S
C79          C80   1.379       .  A
C79          H82   1.082       .  S
C80        C1236   1.461       .  S
O83          C94   1.295       .  A
O83        Eu119   2.477   1_645  S
O84          C95   1.293       .  A
O84        Eu118   2.466   1_545  S
O85          C96   1.297       .  A
O85         Eu91   2.504   1_655  S
O86          C97   1.294       .  A
O86         Eu91   2.483       .  S
O87          C97   1.297       .  A
O87        Eu121   2.497   1_545  S
O88          C96   1.295       .  A
O88        Eu120   2.489   1_545  S
O89          C95   1.286       .  A
O89         Eu91   2.431       .  S
O90          C94   1.283       .  A
O90         Eu91   2.405   1_655  S
Eu91        O101   2.358       .  S
Eu91         O93   2.350   1_455  S
Eu91         O92   2.359       .  S
Eu91         O99   2.347   1_455  S
O92        Eu121   2.354   1_545  S
O92        Eu118   2.362   1_545  S
O93        Eu119   2.359   1_645  S
O93        Eu120   2.338   1_545  S
C94        C1477   1.460   1_655  S
C95        C1267   1.464       .  S
C96        C1194   1.503       .  S
C97        C1211   1.497       .  S
H98          O99   0.960       .  S
O99        Eu120   2.353   1_545  S
O99        Eu118   2.364   1_645  S
H100        O101   0.957       .  S
O101       Eu119   2.365   1_545  S
O101       Eu121   2.350   1_545  S
O102        C125   1.293       .  A
O102       Eu118   2.471       .  S
O103        C126   1.299       .  A
O103       Eu119   2.505   1_655  S
O104        C127   1.280       .  A
O104       Eu120   2.401       .  S
O105        C128   1.288       .  A
O105       Eu121   2.440       .  S
O106        C129   1.286       .  A
O106       Eu121   2.419       .  S
O107        C130   1.283       .  A
O107       Eu120   2.423   1_545  S
O108        C131   1.292       .  A
O108       Eu122   2.473   1_655  S
O109        C132   1.294       .  A
O109       Eu122   2.481       .  S
O110        C131   1.294       .  A
O110       Eu120   2.482       .  S
O111        C132   1.294       .  A
O111       Eu121   2.481       .  S
O112        C127   1.293       .  A
O112       Eu118   2.473   1_655  S
O113        C130   1.296   1_565  A
O113       Eu119   2.473   1_655  S
O114        C129   1.296       .  A
O114       Eu119   2.483       .  S
O115        C128   1.294       .  A
O115       Eu118   2.480       .  S
O116        C125   1.286       .  A
O116       Eu122   2.433       .  S
O117        C126   1.284   1_455  A
O117       Eu122   2.423       .  S
Eu118       O136   2.360       .  S
Eu118       O124   2.354   1_455  S
Eu119       O123   2.353       .  S
Eu119       O134   2.352   1_455  S
Eu120       O134   2.356       .  S
Eu120       O124   2.358       .  S
Eu121       O123   2.355       .  S
Eu121       O136   2.356       .  S
Eu122       O123   2.348       .  S
Eu122       O134   2.362   1_455  S
Eu122       O136   2.350       .  S
Eu122       O124   2.350   1_455  S
C125       C1295   1.469       .  S
C126       C1239   1.472       .  S
C127       C1110   1.451       .  S
C128       C1127   1.470       .  S
C129       C1138   1.478       .  S
C130       C1152   1.464   1_545  S
C131       C1180   1.488       .  S
C132       C1166   1.490       .  S
H133        O134   0.961       .  S
H135        O136   0.961       .  S
N137        C141   1.353       .  A
N137        C138   1.361       .  A
N137       C1208   1.455       .  S
C138        C139   1.385       .  A
C138       C1334   1.468       .  S
C139        C140   1.358       .  A
C139        H142   1.082       .  S
C140        C141   1.377       .  A
C140        H143   1.083       .  S
C141       C1096   1.450       .  S
N144        C148   1.368       .  A
N144        C145   1.358       .  A
N144       C1197   1.449       .  S
C145        C146   1.379       .  A
C145       C1323   1.469       .  S
C146        C147   1.361       .  A
C146        H149   1.083       .  S
C147        C148   1.383       .  A
C147        H150   1.081       .  S
C148       C1082   1.484       .  S
N151        C155   1.365       .  A
N151        C152   1.359       .  A
N151       C1183   1.453       .  S
C152        C153   1.380       .  A
C152       C1071   1.467       .  S
C153        C154   1.362       .  A
C153        H156   1.082       .  S
C154        C155   1.379       .  A
C154        H157   1.083       .  S
C155       C1351   1.473       .  S
N158        C162   1.362       .  A
N158        C159   1.362       .  A
N158       C1169   1.454       .  S
C159        C160   1.382       .  A
C159       C1309   1.472       .  S
C160        C161   1.366       .  A
C160        H163   1.082       .  S
C161        C162   1.379       .  A
C161        H164   1.083       .  S
C162       C1057   1.469       .  S
N165        C169   1.357       .  A
N165        C166   1.361       .  A
N165       C1040   1.447       .  S
C166        C167   1.384       .  A
C166       C1155   1.477       .  S
C167        C168   1.361       .  A
C167        H170   1.079       .  S
C168        C169   1.375       .  A
C168        H171   1.083       .  S
C169       C1026   1.462       .  S
O172        C183   1.296       .  A
O172       Eu208   2.485       .  S
O173        C184   1.298       .  A
O173       Eu207   2.508       .  S
O174        C185   1.298       .  A
O174       Eu180   2.505       .  S
O175        C186   1.295       .  A
O175       Eu180   2.484       .  S
O176        C186   1.292       .  A
O176       Eu210   2.476       .  S
O177        C185   1.297       .  A
O177       Eu209   2.501       .  S
O178        C184   1.285       .  A
O178       Eu180   2.424       .  S
O179        C183   1.284       .  A
O179       Eu180   2.415   1_545  S
Eu180       O190   2.360   1_565  S
Eu180       O182   2.350   1_565  S
Eu180       O181   2.355       .  S
Eu180       O188   2.347       .  S
O181       Eu210   2.362       .  S
O181       Eu207   2.359       .  S
O182       Eu208   2.349       .  S
O182       Eu209   2.345   1_545  S
C183       C1099   1.461       .  S
C184       C1054   1.476       .  S
C185        C984   1.505   1_565  S
C186       C1012   1.488       .  S
H187        O188   0.953       .  S
O188       Eu209   2.363       .  S
O188       Eu207   2.361       .  S
H189        O190   0.956       .  S
O190       Eu208   2.370       .  S
O190       Eu210   2.358   1_545  S
O191        C214   1.300       .  A
O191       Eu207   2.495       .  S
O192        C215   1.300       .  A
O192       Eu208   2.501       .  S
O193        C216   1.283       .  A
O193       Eu209   2.412       .  S
O194        C217   1.283       .  A
O194       Eu210   2.412       .  S
O195        C218   1.281       .  A
O195       Eu210   2.405   1_545  S
O196        C219   1.288       .  A
O196       Eu209   2.442   1_545  S
O197        C220   1.287       .  A
O197       Eu211   2.448   1_565  S
O198        C221   1.293   1_545  A
O198       Eu211   2.481       .  S
O199        C220   1.298       .  A
O199       Eu209   2.501       .  S
O200        C221   1.297       .  A
O200       Eu210   2.503       .  S
O201        C216   1.294       .  A
O201       Eu207   2.470       .  S
O202        C219   1.300       .  A
O202       Eu208   2.504       .  S
O203        C218   1.298       .  A
O203       Eu208   2.485       .  S
O204        C217   1.293       .  A
O204       Eu207   2.465       .  S
O205        C214   1.281       .  A
O205       Eu211   2.408   1_565  S
O206        C215   1.283       .  A
O206       Eu211   2.420       .  S
Eu207       O225   2.359       .  S
Eu207       O213   2.360       .  S
Eu208       O212   2.358       .  S
Eu208       O223   2.367       .  S
Eu209       O223   2.357   1_565  S
Eu209       O213   2.353       .  S
Eu210       O212   2.351   1_565  S
Eu210       O225   2.336       .  S
Eu211       O212   2.344       .  S
Eu211       O223   2.367       .  S
Eu211       O225   2.344   1_545  S
Eu211       O213   2.355   1_545  S
C214       C1068   1.469       .  S
C215       C1085   1.473       .  S
C216        C945   1.453       .  S
C217        C970   1.457       .  S
C218        C956   1.467       .  S
C219        C928   1.488       .  S
C220       C1043   1.492       .  S
C221        C998   1.502       .  S
H222        O223   0.964       .  S
H224        O225   0.962       .  S
N226        C230   1.361       .  A
N226        C227   1.362       .  A
N226       C1015   1.449       .  S
C227        C228   1.385       .  A
C227        C914   1.480       .  S
C228        C229   1.367       .  A
C228        H231   1.083       .  S
C229        C230   1.379       .  A
C229        H232   1.083       .  S
C230       C1124   1.470       .  S
N233        C237   1.363       .  A
N233        C234   1.359       .  A
N233       C1001   1.451       .  S
C234        C235   1.378       .  A
C234       C1113   1.464       .  S
C235        C236   1.363       .  A
C235        H238   1.082       .  S
C236        C237   1.380       .  A
C236        H239   1.082       .  S
C237        C900   1.471       .  S
N240        C244   1.358       .  A
N240        C241   1.366       .  A
N240        C987   1.450       .  S
C241        C242   1.382       .  A
C241        C889   1.484       .  S
C242        C243   1.361       .  A
C242        H245   1.080       .  S
C243        C244   1.379       .  A
C243        H246   1.083       .  S
C244       C1141   1.470       .  S
O247        C258   1.299       .  A
O247       Eu283   2.509   1_564  S
O248        C259   1.300       .  A
O248       Eu282   2.495   1_554  S
O249        C260   1.299       .  A
O249       Eu255   2.511   1_545  S
O250        C261   1.299       .  A
O250       Eu255   2.508       .  S
O251        C261   1.291       .  A
O251       Eu285   2.470   1_554  S
O252        C260   1.296       .  A
O252       Eu284   2.498   1_554  S
O253        C259   1.278       .  A
O253       Eu255   2.388       .  S
O254        C258   1.284       .  A
O254       Eu255   2.418       .  S
Eu255       O265   2.350       .  S
Eu255       O257   2.355   1_565  S
Eu255       O256   2.355       .  S
Eu255       O263   2.360   1_565  S
O256       Eu285   2.351   1_554  S
O256       Eu282   2.352   1_554  S
O257       Eu283   2.364   1_554  S
O257       Eu284   2.361   1_554  S
C258       C1029   1.473       .  S
C259        C886   1.479       .  S
C260        C872   1.505       .  S
C261        C858   1.500       .  S
H262        O263   0.968       .  S
O263       Eu284   2.360   1_554  S
O263       Eu282   2.356   1_544  S
H264        O265   0.957       .  S
O265       Eu283   2.361   1_564  S
O265       Eu285   2.358   1_554  S
O266        C289   1.295       .  A
O266       Eu282   2.480       .  S
O267        C290   1.299       .  A
O267       Eu283   2.499   1_565  S
O268        C291   1.283       .  A
O268       Eu284   2.415       .  S
O269        C292   1.285       .  A
O269       Eu285   2.435       .  S
O270        C293   1.285       .  A
O270       Eu285   2.422       .  S
O271        C294   1.285       .  A
O271       Eu284   2.420       .  S
O272        C295   1.295       .  A
O272       Eu286   2.486   1_545  S
O273        C296   1.295       .  A
O273       Eu286   2.482       .  S
O274        C295   1.298       .  A
O274       Eu284   2.505       .  S
O275        C296   1.293       .  A
O275       Eu285   2.478       .  S
O276        C291   1.293       .  A
O276       Eu282   2.467   1_545  S
O277        C294   1.298       .  A
O277       Eu283   2.498       .  S
O278        C293   1.296       .  A
O278       Eu283   2.489   1_565  S
O279        C292   1.294       .  A
O279       Eu282   2.475       .  S
O280        C289   1.292       .  A
O280       Eu286   2.459       .  S
O281        C290   1.287       .  A
O281       Eu286   2.439       .  S
Eu282       O300   2.355       .  S
Eu282       O288   2.364   1_565  S
Eu283       O287   2.369   1_545  S
Eu283       O298   2.368       .  S
Eu284       O298   2.356       .  S
Eu284       O288   2.355       .  S
Eu285       O287   2.355       .  S
Eu285       O300   2.348       .  S
Eu286       O287   2.358       .  S
Eu286       O298   2.366   1_565  S
Eu286       O300   2.356       .  S
Eu286       O288   2.346   1_565  S
C289        C917   1.489       .  S
C290        C903   1.476       .  S
C291        C816   1.452       .  S
C292        C788   1.467       .  S
C293        C802   1.469       .  S
C294        C774   1.475   1_556  S
C295        C830   1.502       .  S
C296        C844   1.490       .  S
H297        O298   0.958       .  S
H299        O300   0.963       .  S
N301        C305   1.363       .  A
N301        C302   1.378       .  A
N301        C875   1.462       .  S
C302        C303   1.386       .  A
C302        C931   1.493       .  S
C303        C304   1.360       .  A
C303        H306   1.078       .  S
C304        C305   1.376       .  A
C304        H307   1.082       .  S
C305        C763   1.472       .  S
N308        C312   1.359       .  A
N308        C309   1.366       .  A
N308        C861   1.458       .  S
C309        C310   1.380       .  A
C309        C746   1.468       .  S
C310        C311   1.356       .  A
C310        H313   1.082       .  S
C311        C312   1.379       .  A
C311        H314   1.083       .  S
C312        C942   1.460       .  S
N315        C319   1.361       .  A
N315        C316   1.365       .  A
N315        C847   1.454       .  S
C316        C317   1.378       .  A
C316        C732   1.468       .  S
C317        C318   1.356       .  A
C317        H320   1.082       .  S
C318        C319   1.384       .  A
C318        H321   1.083       .  S
C319        C973   1.470       .  S
N322        C326   1.365       .  A
N322        C323   1.366       .  A
N322        C833   1.460       .  S
C323        C324   1.380       .  A
C323        C959   1.465       .  S
C324        C325   1.353       .  A
C324        H327   1.082       .  S
C325        C326   1.382       .  A
C325        H328   1.083       .  S
C326        C718   1.475       .  S
O329        C340   1.294       .  A
O329       Eu365   2.474   1_554  S
O330        C341   1.296       .  A
O330       Eu364   2.485   1_554  S
O331        C342   1.293       .  A
O331       Eu337   2.473       .  S
O332        C343   1.295       .  A
O332       Eu337   2.492   1_655  S
O333        C343   1.297       .  A
O333       Eu367   2.507   1_554  S
O334        C342   1.293       .  A
O334       Eu366   2.477   1_554  S
O335        C341   1.283       .  A
O335       Eu337   2.412       .  S
O336        C340   1.280       .  A
O336       Eu337   2.402       .  S
Eu337       O347   2.355   1_455  S
Eu337       O339   2.349       .  S
Eu337       O338   2.340   1_455  S
Eu337       O345   2.350       .  S
O338       Eu367   2.359   1_554  S
O338       Eu364   2.364   1_654  S
O339       Eu365   2.355   1_554  S
O339       Eu366   2.342   1_554  S
C340       C1463   1.448       .  S
C341       C1222   1.469   1_455  S
C342        C690   1.490       .  S
C343        C704   1.502       .  S
H344        O345   0.977       .  S
O345       Eu366   2.355   1_554  S
O345       Eu364   2.355   1_554  S
H346        O347   0.961       .  S
O347       Eu365   2.365   1_654  S
O347       Eu367   2.355   1_554  S
O348        C371   1.298       .  A
O348       Eu364   2.495       .  S
O349        C372   1.297       .  A
O349       Eu365   2.490       .  S
O350        C373   1.282       .  A
O350       Eu366   2.413       .  S
O351        C374   1.283       .  A
O351       Eu367   2.414       .  S
O352        C375   1.288       .  A
O352       Eu367   2.446   1_554  S
O353        C376   1.287       .  A
O353       Eu366   2.424       .  S
O354        C377   1.298       .  A
O354       Eu368   2.509       .  S
O355        C378   1.293       .  A
O355       Eu368   2.482   1_655  S
O356        C377   1.296       .  A
O356       Eu366   2.496       .  S
O357        C378   1.298       .  A
O357       Eu367   2.502       .  S
O358        C373   1.299       .  A
O358       Eu364   2.499       .  S
O359        C376   1.293       .  A
O359       Eu365   2.472       .  S
O360        C375   1.298       .  A
O360       Eu365   2.496   1_654  S
O361        C374   1.295       .  A
O361       Eu364   2.473   1_655  S
O362        C371   1.281       .  A
O362       Eu368   2.413       .  S
O363        C372   1.283       .  A
O363       Eu368   2.416       .  S
Eu364       O382   2.369   1_455  S
Eu364       O370   2.347       .  S
Eu365       O369   2.359   1_455  S
Eu365       O380   2.369       .  S
Eu366       O380   2.353       .  S
Eu366       O370   2.346       .  S
Eu367       O369   2.359       .  S
Eu367       O382   2.371       .  S
Eu368       O369   2.369   1_455  S
Eu368       O380   2.350       .  S
Eu368       O382   2.356   1_455  S
Eu368       O370   2.346       .  S
C371       C1281   1.465       .  S
C372       C1253   1.465       .  S
C373        C634   1.466       .  S
C374        C606   1.456       .  S
C375        C620   1.478       .  S
C376        C648   1.475       .  S
C377        C676   1.508       .  S
C378        C662   1.495       .  S
H379        O380   0.966       .  S
H381        O382   0.980       .  S
N383        C387   1.365       .  A
N383        C384   1.359       .  A
N383        C707   1.451       .  S
C384        C385   1.378       .  A
C384       C1376   1.472       .  S
C385        C386   1.366       .  A
C385        H388   1.082       .  S
C386        C387   1.383       .  A
C386        H389   1.082       .  S
C387        C592   1.476       .  S
N390        C394   1.371       .  A
N390        C391   1.368       .  A
N390        C693   1.461       .  S
C391        C392   1.380       .  A
C391        C581   1.474       .  S
C392        C393   1.358       .  A
C392        H395   1.083       .  S
C393        C394   1.381       .  A
C393        H396   1.083       .  S
C394       C1362   1.483       .  S
N397        C401   1.357       .  A
N397        C398   1.371       .  A
N397        C679   1.454       .  S
C398        C399   1.385       .  A
C398        C567   1.485       .  S
C399        C400   1.360       .  A
C399        H402   1.080       .  S
C400        C401   1.376       .  A
C400        H403   1.083       .  S
C401       C1390   1.467       .  S
N404        C408   1.365       .  A
N404        C405   1.363       .  A
N404        C665   1.447       .  S
C405        C406   1.387       .  A
C405       C1407   1.491       .  S
C406        C407   1.367       .  A
C406        H409   1.083       .  S
C407        C408   1.378       .  A
C407        H410   1.082       .  S
C408        C550   1.488       .  S
N411        C415   1.357       .  A
N411        C412   1.364       .  A
N411        C536   1.458       .  S
C412        C413   1.384       .  A
C412        C651   1.471       .  S
C413        C414   1.358       .  A
C413        H416   1.083       .  S
C414        C415   1.376       .  A
C414        H417   1.083       .  S
C415        C819   1.456       .  S
O418        C429   1.299       .  A
O418       Eu454   2.493       .  S
O419        C430   1.294       .  A
O419       Eu453   2.473       .  S
O420        C431   1.297       .  A
O420       Eu426   2.496       .  S
O421        C432   1.296       .  A
O421       Eu426   2.493       .  S
O422        C432   1.293       .  A
O422       Eu456   2.476       .  S
O423        C431   1.292       .  A
O423       Eu455   2.478       .  S
O424        C430   1.284       .  A
O424       Eu426   2.413       .  S
O425        C429   1.282       .  A
O425       Eu426   2.408   1_554  S
Eu426       O436   2.359   1_556  S
Eu426       O428   2.340   1_556  S
Eu426       O427   2.346       .  S
Eu426       O434   2.354       .  S
O427       Eu456   2.340       .  S
O427       Eu453   2.356       .  S
O428       Eu454   2.356       .  S
O428       Eu455   2.340   1_554  S
C429        C760   1.473       .  S
C430        C721   1.460       .  S
C431        C539   1.498       .  S
C432        C494   1.495   1_556  S
H433        O434   0.959       .  S
O434       Eu455   2.364       .  S
O434       Eu453   2.374       .  S
H435        O436   0.962       .  S
O436       Eu454   2.354       .  S
O436       Eu456   2.352   1_554  S
O437        C460   1.300       .  A
O437       Eu453   2.502       .  S
O438        C461   1.300       .  A
O438       Eu454   2.504       .  S
O439        C462   1.285       .  A
O439       Eu455   2.428       .  S
O440        C463   1.283       .  A
O440       Eu456   2.418       .  S
O441        C464   1.280       .  A
O441       Eu456   2.403   1_554  S
O442        C465   1.287       .  A
O442       Eu455   2.433   1_554  S
O443        C466   1.294       .  A
O443       Eu457   2.482       .  S
O444        C467   1.293       .  A
O444       Eu457   2.477       .  S
O445        C466   1.293       .  A
O445       Eu455   2.482       .  S
O446        C467   1.293       .  A
O446       Eu456   2.475       .  S
O447        C462   1.299       .  A
O447       Eu453   2.495       .  S
O448        C465   1.295       .  A
O448       Eu454   2.481       .  S
O449        C464   1.300       .  A
O449       Eu454   2.503       .  S
O450        C463   1.301       .  A
O450       Eu453   2.502       .  S
O451        C460   1.280       .  A
O451       Eu457   2.403       .  S
O452        C461   1.279       .  A
O452       Eu457   2.397   1_554  S
Eu453       O471   2.346       .  S
Eu453       O459   2.361       .  S
Eu454       O458   2.355       .  S
Eu454       O469   2.363       .  S
Eu455       O469   2.355   1_556  S
Eu455       O459   2.364       .  S
Eu456       O458   2.356   1_556  S
Eu456       O471   2.354       .  S
Eu457       O458   2.353   1_556  S
Eu457       O469   2.358   1_556  S
Eu457       O471   2.355       .  S
Eu457       O459   2.348       .  S
C460        C735   1.467       .  S
C461        C749   1.466       .  S
C462        C564   1.474       .  S
C463        C553   1.489       .  S
C464        C595   1.467       .  S
C465        C578   1.473       .  S
C466        C508   1.493       .  S
C467        C525   1.489       .  S
H468        O469   0.960       .  S
H470        O471   0.979       .  S
N472        C476   1.362       .  A
N472        C473   1.363       .  A
N472        C522   1.457       .  S
C473        C474   1.379       .  A
C473        C805   1.463       .  S
C474        C475   1.358       .  A
C474        H477   1.083       .  S
C475        C476   1.381       .  A
C475        H478   1.083       .  S
C476        C609   1.468       .  S
N479        C483   1.365       .  A
N479        C480   1.363       .  A
N479        C511   1.455       .  S
C480        C481   1.381       .  A
C480        C791   1.470       .  S
C481        C482   1.363       .  A
C481        H484   1.082       .  S
C482        C483   1.378       .  A
C482        H485   1.083       .  S
C483        C637   1.471       .  S
N486        C490   1.355       .  A
N486        C487   1.369       .  A
N486        C497   1.454       .  S
C487        C488   1.386       .  A
C487        C623   1.487       .  S
C488        C489   1.364       .  A
C488        H491   1.079       .  S
C489        C490   1.376       .  A
C489        H492   1.083       .  S
C490        C777   1.462       .  S
C493        C494   1.398       .  A
C493        C498   1.405       .  A
C493        H500   1.073       .  S
C494        C495   1.408   1_554  A
C495        N502   1.425       .  S
C495        C496   1.414       .  A
C496        C497   1.412   1_556  A
C496        H501   1.083       .  S
C497        C498   1.408       .  A
C498        N499   1.429       .  S
N499        O503   1.262       .  A
N499        O504   1.262       .  A
N502        O506   1.262       .  A
N502        O505   1.260       .  A
C507        C508   1.403       .  A
C507        C512   1.408       .  A
C507        H514   1.084       .  S
C508        C509   1.412   1_556  A
C509        N516   1.424       .  S
C509        C510   1.403       .  A
C510        C511   1.401   1_554  A
C510        H515   1.077       .  S
C511        C512   1.417       .  A
C512        N513   1.426       .  S
N513        O517   1.262       .  A
N513        O518   1.262       .  A
N516        O520   1.261       .  A
N516        O519   1.262       .  A
C521        C522   1.411       .  A
C521        C526   1.410       .  A
C521        H528   1.083       .  S
C522        C523   1.417   1_556  A
C523        N530   1.428       .  S
C523        C524   1.407       .  A
C524        C525   1.402   1_554  A
C524        H529   1.084       .  S
C525        C526   1.411       .  A
C526        N527   1.432       .  S
N527        O531   1.261       .  A
N527        O532   1.261       .  A
N530        O534   1.262       .  A
N530        O533   1.262       .  A
C535        C536   1.405   1_554  A
C535        C540   1.413       .  A
C535        H542   1.083       .  S
C536        C537   1.421       .  A
C537        N544   1.428       .  S
C537        C538   1.403       .  A
C538        C539   1.399       .  A
C538        H543   1.085       .  S
C539        C540   1.419   1_556  A
C540        N541   1.427       .  S
N541        O545   1.262       .  A
N541        O546   1.261       .  A
N544        O548   1.262       .  A
N544        O547   1.262       .  A
C549        C550   1.394       .  A
C549        C554   1.398       .  A
C549        H556   1.075       .  S
C550        C551   1.419       .  A
C551        N558   1.430       .  S
C551        C552   1.399       .  A
C552        C553   1.400       .  A
C552        H557   1.084       .  S
C553        C554   1.423       .  A
C554        N555   1.429       .  S
N555        O559   1.262       .  A
N555        O560   1.262       .  A
N558        O562   1.262       .  A
N558        O561   1.262       .  A
C563        C564   1.394       .  A
C563        C568   1.395       .  A
C563        H570   1.085       .  S
C564        C565   1.414       .  A
C565        N572   1.425       .  S
C565        C566   1.402       .  A
C566        C567   1.400       .  A
C566        H571   1.082       .  S
C567        C568   1.421       .  A
C568        N569   1.430       .  S
N569        O573   1.262       .  A
N569        O574   1.262       .  A
N572        O576   1.262       .  A
N572        O575   1.261       .  A
C577        C578   1.401       .  A
C577        C582   1.398       .  A
C577        H584   1.075       .  S
C578        C579   1.406       .  A
C579        N586   1.429       .  S
C579        C580   1.399       .  A
C580        C581   1.408       .  A
C580        H585   1.084       .  S
C581        C582   1.406       .  A
C582        N583   1.428       .  S
N583        O587   1.262       .  A
N583        O588   1.262       .  A
N586        O590   1.262       .  A
N586        O589   1.261       .  A
C591        C592   1.397       .  A
C591        C596   1.396       .  A
C591        H598   1.082       .  S
C592        C593   1.415       .  A
C593        N600   1.428       .  S
C593        C594   1.396       .  A
C594        C595   1.395       .  A
C594        H599   1.085       .  S
C595        C596   1.412       .  A
C596        N597   1.422       .  S
N597        O601   1.262       .  A
N597        O602   1.262       .  A
N600        O604   1.261       .  A
N600        O603   1.262       .  A
C605        C606   1.397   1_554  A
C605        C610   1.399       .  A
C605        H612   1.084       .  S
C606        C607   1.398       .  A
C607        N614   1.424       .  S
C607        C608   1.390       .  A
C608        C609   1.403       .  A
C608        H613   1.084       .  S
C609        C610   1.412   1_556  A
C610        N611   1.426       .  S
N611        O615   1.261       .  A
N611        O616   1.262       .  A
N614        O618   1.262       .  A
N614        O617   1.260       .  A
C619        C620   1.399       .  A
C619        C624   1.400       .  A
C619        H626   1.085       .  S
C620        C621   1.412   1_554  A
C621        N628   1.426       .  S
C621        C622   1.401   1_556  A
C622        C623   1.401       .  A
C622        H627   1.083   1_554  S
C623        C624   1.420       .  A
C624        N625   1.432       .  S
N625        O629   1.262       .  A
N625        O630   1.262       .  A
N628        O632   1.262       .  A
N628        O631   1.262       .  A
C633        C634   1.397       .  A
C633        C638   1.398       .  A
C633        H640   1.082       .  S
C634        C635   1.411   1_556  A
C635        N642   1.430       .  S
C635        C636   1.400       .  A
C636        C637   1.400   1_554  A
C636        H641   1.082       .  S
C637        C638   1.408       .  A
C638        N639   1.426       .  S
N639        O643   1.261       .  A
N639        O644   1.261       .  A
N642        O646   1.261       .  A
N642        O645   1.262       .  A
C647        C648   1.410       .  A
C647        C652   1.394       .  A
C647        H654   1.084       .  S
C648        C649   1.409   1_556  A
C649        N656   1.430       .  S
C649        C650   1.395   1_554  A
C650        C651   1.407       .  A
C650        H655   1.085   1_556  S
C651        C652   1.400       .  A
C652        N653   1.426       .  S
N653        O657   1.262       .  A
N653        O658   1.260       .  A
N656        O660   1.261       .  A
N656        O659   1.262       .  A
C661        C662   1.402       .  A
C661        C666   1.405       .  A
C661        H668   1.083       .  S
C662        C663   1.420       .  A
C663        N670   1.425       .  S
C663        C664   1.411       .  A
C664        C665   1.398       .  A
C664        H669   1.083       .  S
C665        C666   1.416       .  A
C666        N667   1.430       .  S
N667        O671   1.262       .  A
N667        O672   1.261       .  A
N670        O674   1.261       .  A
N670        O673   1.262       .  A
C675        C676   1.413       .  A
C675        C680   1.416       .  A
C675        H682   1.083       .  S
C676        C677   1.416       .  A
C677        N684   1.427       .  S
C677        C678   1.410       .  A
C678        C679   1.403       .  A
C678        H683   1.082       .  S
C679        C680   1.407       .  A
C680        N681   1.428       .  S
N681        O685   1.263       .  A
N681        O686   1.261       .  A
N684        O688   1.262       .  A
N684        O687   1.262       .  A
C689        C690   1.400       .  A
C689        C694   1.406       .  A
C689        H696   1.084       .  S
C690        C691   1.409       .  A
C691        N698   1.429       .  S
C691        C692   1.409       .  A
C692        C693   1.411       .  A
C692        H697   1.083       .  S
C693        C694   1.423       .  A
C694        N695   1.428       .  S
N695        O699   1.262       .  A
N695        O700   1.262       .  A
N698        O702   1.261       .  A
N698        O701   1.262       .  A
C703        C704   1.410       .  A
C703        C708   1.412       .  A
C703        H710   1.084       .  S
C704        C705   1.417       .  A
C705        N712   1.427       .  S
C705        C706   1.410       .  A
C706        C707   1.401       .  A
C706        H711   1.083       .  S
C707        C708   1.408       .  A
C708        N709   1.428       .  S
N709        O713   1.262       .  A
N709        O714   1.261       .  A
N712        O716   1.262       .  A
N712        O715   1.262       .  A
C717        C718   1.407       .  A
C717        C722   1.393       .  A
C717        H724   1.084       .  S
C718        C719   1.410       .  A
C719        N726   1.427       .  S
C719        C720   1.395       .  A
C720        C721   1.402       .  A
C720        H725   1.085       .  S
C721        C722   1.405       .  A
C722        N723   1.430       .  S
N723        O727   1.261       .  A
N723        O728   1.261       .  A
N726        O730   1.262       .  A
N726        O729   1.262       .  A
C731        C732   1.395       .  A
C731        C736   1.399       .  A
C731        H738   1.084       .  S
C732        C733   1.413       .  A
C733        N740   1.429       .  S
C733        C734   1.392       .  A
C734        C735   1.394       .  A
C734        H739   1.084       .  S
C735        C736   1.418       .  A
C736        N737   1.427       .  S
N737        O741   1.260       .  A
N737        O742   1.262       .  A
N740        O744   1.262       .  A
N740        O743   1.262       .  A
C745        C746   1.395       .  A
C745        C750   1.398       .  A
C745        H752   1.084       .  S
C746        C747   1.414       .  A
C747        N754   1.429       .  S
C747        C748   1.391       .  A
C748        C749   1.394       .  A
C748        H753   1.084       .  S
C749        C750   1.418       .  A
C750        N751   1.428       .  S
N751        O755   1.261       .  A
N751        O756   1.262       .  A
N754        O758   1.262       .  A
N754        O757   1.262       .  A
C759        C760   1.396       .  A
C759        C764   1.394       .  A
C759        H766   1.084       .  S
C760        C761   1.419       .  A
C761        N768   1.429       .  S
C761        C762   1.400       .  A
C762        C763   1.397       .  A
C762        H767   1.084       .  S
C763        C764   1.414       .  A
C764        N765   1.429       .  S
N765        O769   1.262       .  A
N765        O770   1.262       .  A
N768        O772   1.261       .  A
N768        O771   1.262       .  A
C773        C774   1.412       .  A
C773        C778   1.401       .  A
C773        H780   1.084       .  S
C774        C775   1.409   1_554  A
C775        N782   1.427       .  S
C775        C776   1.394       .  A
C776        C777   1.397   1_556  A
C776        H781   1.085       .  S
C777        C778   1.402       .  A
C778        N779   1.430       .  S
N779        O783   1.262       .  A
N779        O784   1.262       .  A
N782        O786   1.261       .  A
N782        O785   1.261       .  A
C787        C788   1.397       .  A
C787        C792   1.393       .  A
C787        H794   1.085       .  S
C788        C789   1.412   1_556  A
C789        N796   1.429       .  S
C789        C790   1.403       .  A
C790        C791   1.401   1_554  A
C790        H795   1.084       .  S
C791        C792   1.411       .  A
C792        N793   1.430       .  S
N793        O797   1.262       .  A
N793        O798   1.262       .  A
N796        O800   1.262       .  A
N796        O799   1.262       .  A
C801        C802   1.408       .  A
C801        C806   1.401       .  A
C801        H808   1.084       .  S
C802        C803   1.409   1_556  A
C803        N810   1.430       .  S
C803        C804   1.394       .  A
C804        C805   1.401   1_554  A
C804        H809   1.085       .  S
C805        C806   1.404       .  A
C806        N807   1.429       .  S
N807        O811   1.261       .  A
N807        O812   1.262       .  A
N810        O814   1.261       .  A
N810        O813   1.261       .  A
C815        C816   1.396   1_554  A
C815        C820   1.397   1_554  A
C815        H822   1.080       .  S
C816        C817   1.404       .  A
C817        N824   1.425       .  S
C817        C818   1.387       .  A
C818        C819   1.394       .  A
C818        H823   1.085       .  S
C819        C820   1.412       .  A
C820        N821   1.429   1_556  S
N821        O825   1.262       .  A
N821        O826   1.262       .  A
N824        O828   1.260       .  A
N824        O827   1.261       .  A
C829        C830   1.407       .  A
C829        C834   1.412       .  A
C829        H836   1.084       .  S
C830        C831   1.412       .  A
C831        N838   1.426       .  S
C831        C832   1.407       .  A
C832        C833   1.407       .  A
C832        H837   1.083       .  S
C833        C834   1.418       .  A
C834        N835   1.428       .  S
N835        O839   1.262       .  A
N835        O840   1.262       .  A
N838        O842   1.262       .  A
N838        O841   1.261       .  A
C843        C844   1.402       .  A
C843        C848   1.406       .  A
C843        H850   1.082       .  S
C844        C845   1.412       .  A
C845        N852   1.427       .  S
C845        C846   1.403       .  A
C846        C847   1.403       .  A
C846        H851   1.083       .  S
C847        C848   1.421       .  A
C848        N849   1.429       .  S
N849        O853   1.262       .  A
N849        O854   1.262       .  A
N852        O856   1.262       .  A
N852        O855   1.262       .  A
C857        C858   1.403       .  A
C857        C862   1.408       .  A
C857        H864   1.084       .  S
C858        C859   1.417       .  A
C859        N866   1.425       .  S
C859        C860   1.407       .  A
C860        C861   1.401       .  A
C860        H865   1.083       .  S
C861        C862   1.421       .  A
C862        N863   1.428       .  S
N863        O867   1.262       .  A
N863        O868   1.262       .  A
N866        O870   1.262       .  A
N866        O869   1.260       .  A
C871        C872   1.405       .  A
C871        C876   1.415       .  A
C871        H878   1.084       .  S
C872        C873   1.416       .  A
C873        N880   1.426       .  S
C873        C874   1.412       .  A
C874        C875   1.403       .  A
C874        H879   1.083       .  S
C875        C876   1.419       .  A
C876        N877   1.427       .  S
N877        O881   1.262       .  A
N877        O882   1.262       .  A
N880        O884   1.260       .  A
N880        O883   1.261       .  A
C885        C886   1.396       .  A
C885        C890   1.392       .  A
C885        H892   1.084       .  S
C886        C887   1.422   1_565  A
C887        N894   1.431       .  S
C887        C888   1.394       .  A
C888        C889   1.397       .  A
C888        H893   1.074       .  S
C889        C890   1.421   1_545  A
C890        N891   1.430       .  S
N891        O895   1.262   1_565  A
N891        O896   1.262       .  A
N894        O898   1.262   1_545  A
N894        O897   1.262       .  A
C899        C900   1.399       .  A
C899        C904   1.395       .  A
C899        H906   1.085       .  S
C900        C901   1.408   1_565  A
C901        N908   1.429       .  S
C901        C902   1.407       .  A
C902        C903   1.408   1_545  A
C902        H907   1.084       .  S
C903        C904   1.409       .  A
C904        N905   1.428       .  S
N905        O909   1.261       .  A
N905        O910   1.262       .  A
N908        O912   1.262       .  A
N908        O911   1.261       .  A
C913        C914   1.405       .  A
C913        C918   1.398       .  A
C913        H920   1.085       .  S
C914        C915   1.407       .  A
C915        N922   1.428       .  S
C915        C916   1.403       .  A
C916        C917   1.411       .  A
C916        H921   1.084       .  S
C917        C918   1.413       .  A
C918        N919   1.429   1_565  S
N919        O923   1.261       .  A
N919        O924   1.262   1_545  A
N922        O926   1.262       .  A
N922        O925   1.262       .  A
C927        C928   1.400       .  A
C927        C932   1.405       .  A
C927        H934   1.084       .  S
C928        C929   1.412       .  A
C929        N936   1.413       .  S
C929        C930   1.390       .  A
C930        C931   1.389       .  A
C930        H935   1.077       .  S
C931        C932   1.425       .  A
C932        N933   1.430       .  S
N933        O937   1.262       .  A
N933        O938   1.262       .  A
N936        O940   1.262       .  A
N936        O939   1.263       .  A
C941        C942   1.398       .  A
C941        C946   1.387       .  A
C941        H948   1.085       .  S
C942        C943   1.411       .  A
C943        N950   1.428       .  S
C943        C944   1.399       .  A
C944        C945   1.400       .  A
C944        H949   1.084       .  S
C945        C946   1.402       .  A
C946        N947   1.425       .  S
N947        O951   1.261       .  A
N947        O952   1.262       .  A
N950        O954   1.262       .  A
N950        O953   1.261       .  A
C955        C956   1.392       .  A
C955        C960   1.389       .  A
C955        H962   1.078       .  S
C956        C957   1.416       .  A
C957        N964   1.428       .  S
C957        C958   1.398       .  A
C958        C959   1.397       .  A
C958        H963   1.084       .  S
C959        C960   1.414       .  A
C960        N961   1.431       .  S
N961        O965   1.262       .  A
N961        O966   1.262       .  A
N964        O968   1.262       .  A
N964        O967   1.261       .  A
C969        C970   1.401       .  A
C969        C974   1.396       .  A
C969        H976   1.085       .  S
C970        C971   1.403       .  A
C971        N978   1.427       .  S
C971        C972   1.388       .  A
C972        C973   1.403       .  A
C972        H977   1.085       .  S
C973        C974   1.414       .  A
C974        N975   1.428       .  S
N975        O979   1.262       .  A
N975        O980   1.262       .  A
N978        O982   1.262       .  A
N978        O981   1.260       .  A
C983        C984   1.415   1_565  A
C983        C988   1.420       .  A
C983        H990   1.082       .  S
C984        C985   1.414       .  A
C985        N992   1.424       .  S
C985        C986   1.402       .  A
C986        C987   1.399       .  A
C986        H991   1.084       .  S
C987        C988   1.407   1_545  A
C988        N989   1.428       .  S
N989        O993   1.261       .  A
N989        O994   1.262       .  A
N992        O996   1.261       .  A
N992        O995   1.261       .  A
C997        C998   1.412       .  A
C997       C1002   1.414       .  A
C997       H1004   1.084       .  S
C998        C999   1.417   1_565  A
C999       N1006   1.428       .  S
C999       C1000   1.407       .  A
C1000      C1001   1.399   1_545  A
C1000      H1005   1.080       .  S
C1001      C1002   1.408       .  A
C1002      N1003   1.429       .  S
N1003      O1007   1.260       .  A
N1003      O1008   1.263       .  A
N1006      O1010   1.262       .  A
N1006      O1009   1.261       .  A
C1011      C1012   1.404   1_545  A
C1011      C1016   1.413       .  A
C1011      H1018   1.084       .  S
C1012      C1013   1.405       .  A
C1013      N1020   1.424       .  S
C1013      C1014   1.401       .  A
C1014      C1015   1.404       .  A
C1014      H1019   1.082       .  S
C1015      C1016   1.415   1_565  A
C1016      N1017   1.426       .  S
N1017      O1021   1.262       .  A
N1017      O1022   1.262       .  A
N1020      O1024   1.262       .  A
N1020      O1023   1.262       .  A
C1025      C1026   1.399   1_545  A
C1025      C1030   1.397       .  A
C1025      H1032   1.084       .  S
C1026      C1027   1.402       .  A
C1027      N1034   1.429       .  S
C1027      C1028   1.401       .  A
C1028      C1029   1.409       .  A
C1028      H1033   1.084       .  S
C1029      C1030   1.409   1_565  A
C1030      N1031   1.427       .  S
N1031      O1035   1.262       .  A
N1031      O1036   1.262       .  A
N1034      O1038   1.262       .  A
N1034      O1037   1.262       .  A
C1039      C1040   1.399   1_545  A
C1039      C1044   1.402       .  A
C1039      H1046   1.083       .  S
C1040      C1041   1.411       .  A
C1041      N1048   1.426       .  S
C1041      C1042   1.409       .  A
C1042      C1043   1.403       .  A
C1042      H1047   1.084       .  S
C1043      C1044   1.404   1_565  A
C1044      N1045   1.412       .  S
N1045      O1049   1.256       .  A
N1045      O1050   1.262       .  A
N1048      O1052   1.262       .  A
N1048      O1051   1.261       .  A
C1053      C1054   1.404       .  A
C1053      C1058   1.397       .  A
C1053      H1060   1.082       .  S
C1054      C1055   1.411       .  A
C1055      N1062   1.427       .  S
C1055      C1056   1.401       .  A
C1056      C1057   1.401       .  A
C1056      H1061   1.085       .  S
C1057      C1058   1.407       .  A
C1058      N1059   1.429       .  S
N1059      O1063   1.261       .  A
N1059      O1064   1.262       .  A
N1062      O1066   1.261       .  A
N1062      O1065   1.262       .  A
C1067      C1068   1.395       .  A
C1067      C1072   1.391       .  A
C1067      H1074   1.084       .  S
C1068      C1069   1.420       .  A
C1069      N1076   1.432       .  S
C1069      C1070   1.402       .  A
C1070      C1071   1.398       .  A
C1070      H1075   1.084       .  S
C1071      C1072   1.410       .  A
C1072      N1073   1.429       .  S
N1073      O1077   1.262       .  A
N1073      O1078   1.262       .  A
N1076      O1080   1.262       .  A
N1076      O1079   1.262       .  A
C1081      C1082   1.402       .  A
C1081      C1086   1.406       .  A
C1081      H1088   1.083       .  S
C1082      C1083   1.417       .  A
C1083      N1090   1.429       .  S
C1083      C1084   1.394       .  A
C1084      C1085   1.394       .  A
C1084      H1089   1.085       .  S
C1085      C1086   1.416       .  A
C1086      N1087   1.427       .  S
N1087      O1091   1.261       .  A
N1087      O1092   1.262       .  A
N1090      O1094   1.261       .  A
N1090      O1093   1.262       .  A
C1095      C1096   1.394       .  A
C1095      C1100   1.390       .  A
C1095      H1102   1.085       .  S
C1096      C1097   1.398       .  A
C1097      N1104   1.426       .  S
C1097      C1098   1.395       .  A
C1098      C1099   1.406       .  A
C1098      H1103   1.084       .  S
C1099      C1100   1.406       .  A
C1100      N1101   1.424       .  S
N1101      O1105   1.261       .  A
N1101      O1106   1.262       .  A
N1104      O1108   1.261       .  A
N1104      O1107   1.262       .  A
C1109      C1110   1.390   1_545  A
C1109      C1114   1.391       .  A
C1109      H1116   1.081       .  S
C1110      C1111   1.403       .  A
C1111      N1118   1.429       .  S
C1111      C1112   1.402       .  A
C1112      C1113   1.406       .  A
C1112      H1117   1.084       .  S
C1113      C1114   1.410   1_565  A
C1114      N1115   1.428       .  S
N1115      O1119   1.262       .  A
N1115      O1120   1.262       .  A
N1118      O1122   1.261       .  A
N1118      O1121   1.262       .  A
C1123      C1124   1.403       .  A
C1123      C1128   1.401   1_565  A
C1123      H1130   1.084   1_565  S
C1124      C1125   1.407       .  A
C1125      N1132   1.428       .  S
C1125      C1126   1.397       .  A
C1126      C1127   1.402       .  A
C1126      H1131   1.085       .  S
C1127      C1128   1.408   1_565  A
C1128      N1129   1.428       .  S
N1129      O1133   1.262       .  A
N1129      O1134   1.262       .  A
N1132      O1136   1.262       .  A
N1132      O1135   1.262       .  A
C1137      C1138   1.410   1_545  A
C1137      C1142   1.397       .  A
C1137      H1144   1.084       .  S
C1138      C1139   1.409       .  A
C1139      N1146   1.428       .  S
C1139      C1140   1.394       .  A
C1140      C1141   1.403   1_565  A
C1140      H1145   1.085       .  S
C1141      C1142   1.402       .  A
C1142      N1143   1.426       .  S
N1143      O1147   1.261       .  A
N1143      O1148   1.262       .  A
N1146      O1150   1.262       .  A
N1146      O1149   1.262       .  A
C1151      C1152   1.391       .  A
C1151      C1156   1.385       .  A
C1151      H1158   1.083       .  S
C1152      C1153   1.414   1_565  A
C1153      N1160   1.426       .  S
C1153      C1154   1.405       .  A
C1154      C1155   1.402   1_545  A
C1154      H1159   1.083       .  S
C1155      C1156   1.409       .  A
C1156      N1157   1.423       .  S
N1157      O1161   1.260       .  A
N1157      O1162   1.262       .  A
N1160      O1164   1.262       .  A
N1160      O1163   1.261       .  A
C1165      C1166   1.407       .  A
C1165      C1170   1.412       .  A
C1165      H1172   1.084       .  S
C1166      C1167   1.411       .  A
C1167      N1174   1.429       .  S
C1167      C1168   1.400       .  A
C1168      C1169   1.403       .  A
C1168      H1173   1.080       .  S
C1169      C1170   1.417       .  A
C1170      N1171   1.428       .  S
N1171      O1175   1.262       .  A
N1171      O1176   1.262       .  A
N1174      O1178   1.260       .  A
N1174      O1177   1.262       .  A
C1179      C1180   1.403       .  A
C1179      C1184   1.405       .  A
C1179      H1186   1.084       .  S
C1180      C1181   1.412       .  A
C1181      N1188   1.430       .  S
C1181      C1182   1.413       .  A
C1182      C1183   1.409       .  A
C1182      H1187   1.083       .  S
C1183      C1184   1.409       .  A
C1184      N1185   1.428       .  S
N1185      O1189   1.261       .  A
N1185      O1190   1.263       .  A
N1188      O1192   1.262       .  A
N1188      O1191   1.262       .  A
C1193      C1194   1.411       .  A
C1193      C1198   1.411       .  A
C1193      H1200   1.084       .  S
C1194      C1195   1.418       .  A
C1195      N1202   1.427       .  S
C1195      C1196   1.410       .  A
C1196      C1197   1.402       .  A
C1196      H1201   1.083       .  S
C1197      C1198   1.406       .  A
C1198      N1199   1.428       .  S
N1199      O1203   1.261       .  A
N1199      O1204   1.262       .  A
N1202      O1206   1.261       .  A
N1202      O1205   1.261       .  A
C1207      C1208   1.409       .  A
C1207      C1212   1.412       .  A
C1207      H1214   1.083       .  S
C1208      C1209   1.411       .  A
C1209      N1216   1.426       .  S
C1209      C1210   1.409       .  A
C1210      C1211   1.406       .  A
C1210      H1215   1.082       .  S
C1211      C1212   1.410       .  A
C1212      N1213   1.428       .  S
N1213      O1217   1.262       .  A
N1213      O1218   1.262       .  A
N1216      O1220   1.260       .  A
N1216      O1219   1.262       .  A
C1221      C1222   1.407       .  A
C1221      C1226   1.397       .  A
C1221      H1228   1.085       .  S
C1222      C1223   1.405   1_655  A
C1223      N1230   1.425       .  S
C1223      C1224   1.392       .  A
C1224      C1225   1.403   1_455  A
C1224      H1229   1.085       .  S
C1225      C1226   1.403       .  A
C1226      N1227   1.426       .  S
N1227      O1231   1.261       .  A
N1227      O1232   1.260       .  A
N1230      O1234   1.259       .  A
N1230      O1233   1.262       .  A
C1235      C1236   1.393   1_455  A
C1235      C1240   1.398       .  A
C1235      H1242   1.084       .  S
C1236      C1237   1.406       .  A
C1237      N1244   1.432       .  S
C1237      C1238   1.397       .  A
C1238      C1239   1.403       .  A
C1238      H1243   1.081       .  S
C1239      C1240   1.416   1_655  A
C1240      N1241   1.426       .  S
N1241      O1245   1.262       .  A
N1241      O1246   1.261       .  A
N1244      O1248   1.260       .  A
N1244      O1247   1.261       .  A
C1249      C1250   1.397   1_655  A
C1249      C1254   1.398       .  A
C1249      H1256   1.084       .  S
C1250      C1251   1.419       .  A
C1251      N1258   1.431       .  S
C1251      C1252   1.397       .  A
C1252      C1253   1.396       .  A
C1252      H1257   1.085       .  S
C1253      C1254   1.410   1_455  A
C1254      N1255   1.425       .  S
N1255      O1259   1.260       .  A
N1255      O1260   1.262       .  A
N1258      O1262   1.262       .  A
N1258      O1261   1.262       .  A
C1263      C1264   1.403   1_655  A
C1263      C1268   1.393       .  A
C1263      H1270   1.085       .  S
C1264      C1265   1.407       .  A
C1265      N1272   1.428       .  S
C1265      C1266   1.398       .  A
C1266      C1267   1.403       .  A
C1266      H1271   1.084       .  S
C1267      C1268   1.405   1_455  A
C1268      N1269   1.427       .  S
N1269      O1273   1.261       .  A
N1269      O1274   1.262       .  A
N1272      O1276   1.261       .  A
N1272      O1275   1.262       .  A
C1277      C1278   1.399   1_455  A
C1277      C1282   1.401       .  A
C1277      H1284   1.084       .  S
C1278      C1279   1.410       .  A
C1279      N1286   1.429       .  S
C1279      C1280   1.392       .  A
C1280      C1281   1.393   1_655  A
C1280      H1285   1.075       .  S
C1281      C1282   1.409       .  A
C1282      N1283   1.426       .  S
N1283      O1287   1.261       .  A
N1283      O1288   1.261       .  A
N1286      O1290   1.262       .  A
N1286      O1289   1.262       .  A
C1291      C1292   1.402       .  A
C1291      C1296   1.390       .  A
C1291      H1298   1.085       .  S
C1292      C1293   1.412   1_455  A
C1293      N1300   1.429       .  S
C1293      C1294   1.402       .  A
C1294      C1295   1.406   1_655  A
C1294      H1299   1.084       .  S
C1295      C1296   1.405       .  A
C1296      N1297   1.427       .  S
N1297      O1301   1.262       .  A
N1297      O1302   1.261       .  A
N1300      O1304   1.262       .  A
N1300      O1303   1.262       .  A
C1305      C1306   1.397       .  A
C1305      C1310   1.392       .  A
C1305      H1312   1.084       .  S
C1306      C1307   1.422       .  A
C1307      N1314   1.430       .  S
C1307      C1308   1.403       .  A
C1308      C1309   1.398       .  A
C1308      H1313   1.084       .  S
C1309      C1310   1.412       .  A
C1310      N1311   1.429       .  S
N1311      O1315   1.262       .  A
N1311      O1316   1.262       .  A
N1314      O1318   1.262       .  A
N1314      O1317   1.262       .  A
C1319      C1320   1.405       .  A
C1319      C1324   1.398       .  A
C1319      H1326   1.084       .  S
C1320      C1321   1.406       .  A
C1321      N1328   1.427       .  S
C1321      C1322   1.393       .  A
C1322      C1323   1.402       .  A
C1322      H1327   1.085       .  S
C1323      C1324   1.408       .  A
C1324      N1325   1.428       .  S
N1325      O1329   1.262       .  A
N1325      O1330   1.262       .  A
N1328      O1332   1.262       .  A
N1328      O1331   1.261       .  A
C1333      C1334   1.403       .  A
C1333      C1338   1.398       .  A
C1333      H1340   1.084       .  S
C1334      C1335   1.416       .  A
C1335      N1342   1.437       .  S
C1335      C1336   1.395       .  A
C1336      C1337   1.397       .  A
C1336      H1341   1.084       .  S
C1337      C1338   1.406       .  A
C1338      N1339   1.430       .  S
N1339      O1343   1.262       .  A
N1339      O1344   1.262       .  A
N1342      O1346   1.262       .  A
N1342      O1345   1.262       .  A
C1347      C1348   1.403       .  A
C1347      C1352   1.405       .  A
C1347      H1354   1.084       .  S
C1348      C1349   1.404       .  A
C1349      N1356   1.428       .  S
C1349      C1350   1.396       .  A
C1350      C1351   1.403       .  A
C1350      H1355   1.084       .  S
C1351      C1352   1.410       .  A
C1352      N1353   1.428       .  S
N1353      O1357   1.261       .  A
N1353      O1358   1.262       .  A
N1356      O1360   1.261       .  A
N1356      O1359   1.261       .  A
C1361      C1362   1.413       .  A
C1361      C1366   1.401       .  A
C1361      H1368   1.084       .  S
C1362      C1363   1.410       .  A
C1363      N1370   1.426       .  S
C1363      C1364   1.398       .  A
C1364      C1365   1.398       .  A
C1364      H1369   1.084       .  S
C1365      C1366   1.403       .  A
C1366      N1367   1.432       .  S
N1367      O1371   1.262       .  A
N1367      O1372   1.262       .  A
N1370      O1374   1.261       .  A
N1370      O1373   1.262       .  A
C1375      C1376   1.403       .  A
C1375      C1380   1.398       .  A
C1375      H1382   1.081       .  S
C1376      C1377   1.415       .  A
C1377      N1384   1.428       .  S
C1377      C1378   1.394       .  A
C1378      C1379   1.392       .  A
C1378      H1383   1.082       .  S
C1379      C1380   1.406       .  A
C1380      N1381   1.429       .  S
N1381      O1385   1.261       .  A
N1381      O1386   1.262       .  A
N1384      O1388   1.262       .  A
N1384      O1387   1.262       .  A
C1389      C1390   1.399       .  A
C1389      C1394   1.400       .  A
C1389      H1396   1.083       .  S
C1390      C1391   1.408       .  A
C1391      N1398   1.429       .  S
C1391      C1392   1.397       .  A
C1392      C1393   1.398       .  A
C1392      H1397   1.084       .  S
C1393      C1394   1.413       .  A
C1394      N1395   1.430       .  S
N1395      O1399   1.262       .  A
N1395      O1400   1.262       .  A
N1398      O1402   1.261       .  A
N1398      O1401   1.262       .  A
C1403      C1404   1.411       .  A
C1403      C1408   1.400       .  A
C1403      H1410   1.084       .  S
C1404      C1405   1.411       .  A
C1405      N1412   1.428       .  S
C1405      C1406   1.399       .  A
C1406      C1407   1.409       .  A
C1406      H1411   1.084       .  S
C1407      C1408   1.406       .  A
C1408      N1409   1.424       .  S
N1409      O1413   1.261       .  A
N1409      O1414   1.262       .  A
N1412      O1416   1.261       .  A
N1412      O1415   1.262       .  A
C1417      C1418   1.409   1_455  A
C1417      C1422   1.410       .  A
C1417      H1424   1.081       .  S
C1418      C1419   1.421       .  A
C1419      N1426   1.425       .  S
C1419      C1420   1.399       .  A
C1420      C1421   1.398       .  A
C1420      H1425   1.085       .  S
C1421      C1422   1.417   1_655  A
C1422      N1423   1.429       .  S
N1423      O1427   1.262       .  A
N1423      O1428   1.262       .  A
N1426      O1430   1.263       .  A
N1426      O1429   1.262       .  A
C1431      C1432   1.404   1_655  A
C1431      C1436   1.413       .  A
C1431      H1438   1.084       .  S
C1432      C1433   1.415       .  A
C1433      N1440   1.427       .  S
C1433      C1434   1.409       .  A
C1434      C1435   1.405       .  A
C1434      H1439   1.083       .  S
C1435      C1436   1.425   1_455  A
C1436      N1437   1.429       .  S
N1437      O1441   1.262       .  A
N1437      O1442   1.262       .  A
N1440      O1444   1.261       .  A
N1440      O1443   1.262       .  A
C1445      C1446   1.403   1_455  A
C1445      C1450   1.408       .  A
C1445      H1452   1.084       .  S
C1446      C1447   1.412       .  A
C1447      N1454   1.429       .  S
C1447      C1448   1.398       .  A
C1448      C1449   1.403   1_655  A
C1448      H1453   1.081       .  S
C1449      C1450   1.423       .  A
C1450      N1451   1.429       .  S
N1451      O1455   1.262       .  A
N1451      O1456   1.262       .  A
N1454      O1458   1.261       .  A
N1454      O1457   1.262       .  A
C1459      C1460   1.397       .  A
C1459      C1464   1.390       .  A
C1459      H1466   1.084       .  S
C1460      C1461   1.409   1_455  A
C1461      N1468   1.428       .  S
C1461      C1462   1.393       .  A
C1462      C1463   1.396   1_655  A
C1462      H1467   1.084       .  S
C1463      C1464   1.406       .  A
C1464      N1465   1.428       .  S
N1465      O1469   1.261       .  A
N1465      O1470   1.260       .  A
N1468      O1472   1.262       .  A
N1468      O1471   1.262       .  A
C1473      C1474   1.404   1_655  A
C1473      C1478   1.394       .  A
C1473      H1480   1.084       .  S
C1474      C1475   1.401       .  A
C1475      N1482   1.424       .  S
C1475      C1476   1.392       .  A
C1476      C1477   1.403       .  A
C1476      H1481   1.083       .  S
C1477      C1478   1.404   1_455  A
C1478      N1479   1.428       .  S
N1479      O1483   1.261       .  A
N1479      O1484   1.262       .  A
N1482      O1486   1.262       .  A
N1482      O1485   1.261       .  A
C1487      C1488   1.404   1_655  A
C1487      C1492   1.408       .  A
C1487      H1494   1.083       .  S
C1488      C1489   1.419       .  A
C1489      N1496   1.427       .  S
C1489      C1490   1.402       .  A
C1490      C1491   1.398       .  A
C1490      H1495   1.085       .  S
C1491      C1492   1.412   1_455  A
C1492      N1493   1.426       .  S
N1493      O1497   1.261       .  A
N1493      O1498   1.262       .  A
N1496      O1500   1.262       .  A
N1496      O1499   1.262       .  A
