geometry optimzed in LAMMPS
_audit_creation_date              2020-11-30 
_audit_creation_method            'lammps2cif' 
_symmetry_space_group_name_H-M    'P1' 
_symmetry_Int_Tables_number       1 
_symmetry_cell_setting            triclinic 
loop_ 
_symmetry_equiv_pos_as_xyz 
  x,y,z 
_cell_length_a                    46.19225605 
_cell_length_b                    46.181413439321425 
_cell_length_c                    55.87172163792472 
_cell_angle_alpha                 89.99689230120678 
_cell_angle_beta                  90.11545775070806 
_cell_angle_gamma                 90.23764596608079 
loop_ 
_atom_site_label 
_atom_site_type_symbol 
_atom_site_fract_x 
_atom_site_fract_y 
_atom_site_fract_z 
_atom_site_charge 
In1        In  0.21463348  0.20907152  0.85220459     1.36900
C2          C  0.21572389  0.22117940  0.89824482     0.77700
O3          O  0.17183338  0.23073628  0.84861472    -0.60700
O4          O  0.17239734  0.18462589  0.84827057    -0.51600
C5          C  0.23149993  0.23642970  0.81318111     0.70400
O6          O  0.22959421  0.24907875  0.83319292    -0.46500
C7          C  0.25610935  0.16998786  0.85478736     0.75100
O8          O  0.22608657  0.23844514  0.88287692    -0.58300
O9          O  0.23057118  0.16354293  0.84842019    -0.48400
O10         O  0.20458957  0.19851963  0.88964356    -0.54800
C11         C  0.15742519  0.20749288  0.84836298     0.85300
O12         O  0.22358344  0.21023637  0.81320758    -0.56700
O13         O  0.26052457  0.19643023  0.85905326    -0.60000
In14       In  0.33238909  0.33895718  0.62121686     1.36900
C15         C  0.31609558  0.33335070  0.57626052     0.77700
O16         O  0.31153052  0.38236408  0.62120526    -0.60700
O17         O  0.35759920  0.38084908  0.62103139    -0.51600
C18         C  0.30727941  0.32697478  0.66247205     0.70400
O19         O  0.29463077  0.32363610  0.64260393    -0.46500
C20         C  0.37158939  0.29746428  0.62028509     0.75100
O21         O  0.29903269  0.32783358  0.59334212    -0.58300
O22         O  0.37818753  0.32368354  0.62403693    -0.48400
O23         O  0.34101530  0.34142526  0.58263640    -0.54800
C24         C  0.33505351  0.39620515  0.62011729     0.85300
O25         O  0.33253802  0.33742176  0.66102717    -0.56700
O26         O  0.34489761  0.29235320  0.61811910    -0.60000
In27       In  0.30607259  0.35791121  0.35550917     1.36900
C28         C  0.29640773  0.34292509  0.40042142     0.77700
O29         O  0.35062017  0.33841061  0.35739043    -0.60700
O30         O  0.34767328  0.38398998  0.35372327    -0.51600
C31         C  0.29258850  0.33096419  0.31467762     0.70400
O32         O  0.29075250  0.31886499  0.33487376    -0.46500
C33         C  0.26542501  0.39842438  0.35489531     0.75100
O34         O  0.29471393  0.32467357  0.38362996    -0.58300
O35         O  0.29201884  0.40430314  0.35244715    -0.48400
O36         O  0.30412583  0.36795913  0.39417541    -0.54800
C37         C  0.36387628  0.36225338  0.35605706     0.85300
O38         O  0.30239093  0.35650387  0.31554883    -0.56700
O39         O  0.25959716  0.37183943  0.35673920    -0.60000
In40       In  0.18702536  0.23216827  0.12073882     1.36900
C41         C  0.20165534  0.23708621  0.07550796     0.77700
O42         O  0.20723673  0.18823458  0.12216990    -0.60700
O43         O  0.16128790  0.19045754  0.12169184    -0.51600
C44         C  0.21252514  0.24925812  0.16069486     0.70400
O45         O  0.22487244  0.25104347  0.14058997    -0.46500
C46         C  0.14803689  0.27388552  0.11980919     0.75100
O47         O  0.22034910  0.23872582  0.09200947    -0.58300
O48         O  0.14134842  0.24786285  0.12443382    -0.48400
O49         O  0.17607431  0.23253815  0.08226441    -0.54800
C50         C  0.18353524  0.17466963  0.12129083     0.85300
O51         O  0.18819688  0.23668159  0.16044826    -0.56700
O52         O  0.17462862  0.27856192  0.11651944    -0.60000
In53       In  0.43787346  0.08964829  0.60041842     1.36900
C54         C  0.45321182  0.08371303  0.64561950     0.77700
O55         O  0.45870221  0.13328439  0.60248925    -0.60700
O56         O  0.41289515  0.13137358  0.59827160    -0.51600
C57         C  0.46528782  0.08019057  0.55934168     0.70400
O58         O  0.47710109  0.07656837  0.57954012    -0.46500
C59         C  0.39788530  0.04830042  0.59993531     0.75100
O60         O  0.46927455  0.07511007  0.62880339    -0.58300
O61         O  0.39159604  0.07477963  0.59783303    -0.48400
O62         O  0.42952394  0.09467611  0.63925037    -0.54800
C63         C  0.43519467  0.14696281  0.60110339     0.85300
O64         O  0.43958919  0.08923526  0.56043655    -0.56700
O65         O  0.42455306  0.04298397  0.60130396    -0.60000
In66       In  0.05671090  0.46903626  0.36782074     1.36900
C67         C  0.04563973  0.48183718  0.32281639     0.77700
O68         O  0.10095064  0.48838893  0.36309991    -0.60700
O69         O  0.09835973  0.44341449  0.37059760    -0.51600
C70         C  0.04620216  0.49834626  0.40787354     0.70400
O71         O  0.04446725  0.50973876  0.38740124    -0.46500
C72         C  0.01566450  0.42869037  0.36901554     0.75100
O73         O  0.04234116  0.50028075  0.33928387    -0.58300
O74         O  0.04218958  0.42279448  0.37159671    -0.48400
O75         O  0.05561671  0.45782470  0.32945908    -0.54800
C76         C  0.11433898  0.46493848  0.36601940     0.85300
O77         O  0.05418932  0.47223436  0.40765615    -0.56700
O78         O  0.01003851  0.45528481  0.36734548    -0.60000
In79       In  0.08704016  0.33703045  0.10911915     1.36900
C80         C  0.06121983  0.33887399  0.15155815     0.77700
O81         O  0.09972210  0.29143015  0.11715871    -0.60700
O82         O  0.13322158  0.32306499  0.11384235    -0.51600
C83         C  0.07371948  0.31984780  0.06518028     0.70400
O84         O  0.05769730  0.31409268  0.08292512    -0.46500
C85         C  0.08649298  0.39381714  0.10242038     0.75100
O86         O  0.04861678  0.32921524  0.13302379    -0.58300
O87         O  0.10982464  0.38014604  0.10596176    -0.48400
O88         O  0.08708442  0.34673371  0.14821532    -0.54800
C89         C  0.12647930  0.29678943  0.11720023     0.85300
O90         O  0.09603983  0.33452262  0.07004335    -0.56700
O91         O  0.06393078  0.37833008  0.10169306    -0.60000
In92       In  0.06887718  0.21030434  0.85694665     1.36900
C93         C  0.06976708  0.23522653  0.89970596     0.77700
O94         O  0.02384281  0.19665662  0.86671848    -0.60700
O95         O  0.05425694  0.16381430  0.85818222    -0.51600
C96         C  0.04928089  0.22922689  0.81512949     0.70400
O97         O  0.04929026  0.24492970  0.83362305    -0.46500
C98         C  0.12571850  0.20765563  0.84985984     0.75100
O99         O  0.05879282  0.24726248  0.88154575    -0.58300
O100        O  0.11063433  0.18518301  0.85341994    -0.48400
O101        O  0.07996526  0.21033916  0.89595497    -0.54800
C102        C  0.02856218  0.17008331  0.86380319     0.85300
O103        O  0.06058137  0.20467047  0.81792096    -0.56700
O104        O  0.11161708  0.23094897  0.84917827    -0.60000
In105      In  0.43356598  0.23549052  0.60933008     1.36900
C106        C  0.45909376  0.23995783  0.65152504     0.77700
O107        O  0.41999219  0.28092288  0.61636507    -0.60700
O108        O  0.38715718  0.24837934  0.61483265    -0.51600
C109        C  0.44526610  0.25431963  0.56573879     0.70400
O110        O  0.46325473  0.25693953  0.58270841    -0.46500
C111        C  0.43417112  0.17853750  0.60345067     0.75100
O112        O  0.47185097  0.24671127  0.63228065    -0.58300
O113        O  0.41086671  0.19240956  0.60610022    -0.48400
O114        O  0.43389823  0.22974399  0.64888073    -0.54800
C115        C  0.39341491  0.27491054  0.61740702     0.85300
O116        O  0.42266879  0.24028293  0.57084130    -0.56700
O117        O  0.45688281  0.19379645  0.60367017    -0.60000
In118      In  0.45314469  0.36676234  0.35972629     1.36900
C119        C  0.45961242  0.34187377  0.40202126     0.77700
O120        O  0.49915684  0.38030002  0.36532238    -0.60700
O121        O  0.46686460  0.41316361  0.36516239    -0.51600
C122        C  0.46640096  0.35595382  0.31417537     0.70400
O123        O  0.47179227  0.33811542  0.33082602    -0.46500
C124        C  0.39564811  0.36427051  0.35734684     0.75100
O125        O  0.46581535  0.32884209  0.38272671    -0.58300
O126        O  0.40924677  0.38807229  0.35866718    -0.48400
O127        O  0.44976371  0.36709041  0.39923880    -0.54800
C128        C  0.49344492  0.40688247  0.36702832     0.85300
O129        O  0.45341970  0.37836124  0.32108031    -0.56700
O130        O  0.41143530  0.34203196  0.35739241    -0.60000
In131      In  0.08112402  0.48293062  0.10159529     1.36900
C132        C  0.06557244  0.48820966  0.14690917     0.77700
O133        O  0.06124488  0.43867411  0.10013751    -0.60700
O134        O  0.10716836  0.44163472  0.10021192    -0.51600
C135        C  0.05374358  0.99765467  0.06148605     0.70400
O136        O  0.04171493  0.99967018  0.08167566    -0.46500
C137        C  0.12005601  0.02392803  0.10126004     0.75100
O138        O  0.04778284  0.49161826  0.12995484    -0.58300
O139        O  0.12612671  0.99755921  0.09794683    -0.48400
O140        O  0.09082465  0.48188575  0.14030539    -0.54800
C141        C  0.08506704  0.42547349  0.10052133     0.85300
O142        O  0.07961522  0.48627193  0.06194583    -0.56700
O143        O  0.09356308  0.02923780  0.10404161    -0.60000
In144      In  0.46474494  0.10728433  0.86691074     1.36900
C145        C  0.46650933  0.08941782  0.82215454     0.77700
O146        O  0.42174084  0.08563884  0.87058934    -0.60700
O147        O  0.42295776  0.13177317  0.86867884    -0.51600
C148        C  0.47979550  0.08347498  0.90791973     0.70400
O149        O  0.47942731  0.06937487  0.88853321    -0.46500
C150        C  0.50542578  0.14774115  0.86451632     0.75100
O151        O  0.47917480  0.07569091  0.83868366    -0.58300
O152        O  0.47946759  0.15357958  0.86969095    -0.48400
O153        O  0.45353157  0.11201826  0.82858980    -0.54800
C154        C  0.40772358  0.10900642  0.86963166     0.85300
O155        O  0.47076077  0.10913344  0.90639110    -0.56700
O156        O  0.01001966  0.12196252  0.86151948    -0.60000
In157      In  0.31908638  0.10866473  0.86407155     1.36900
C158        C  0.31508168  0.08581485  0.82090452     0.77700
O159        O  0.27334548  0.12155979  0.85724377    -0.60700
O160        O  0.30507597  0.15495178  0.86134211    -0.51600
C161        C  0.30193512  0.09352638  0.90745392     0.70400
O162        O  0.30024474  0.07639666  0.88986373    -0.46500
C163        C  0.37611065  0.10931465  0.86846796     0.75100
O164        O  0.30967932  0.07131091  0.83962284    -0.58300
O165        O  0.36162933  0.13230842  0.86625308    -0.48400
O166        O  0.32292948  0.11158002  0.82466470    -0.54800
C167        C  0.27881484  0.14832045  0.85770080     0.85300
O168        O  0.31399959  0.11739555  0.90277107    -0.56700
O169        O  0.36140848  0.08626778  0.86871461    -0.60000
In170      In  0.18226785  0.08617235  0.11172994     1.36900
C171        C  0.21107210  0.08413144  0.07077155     0.77700
O172        O  0.16878606  0.04079231  0.10328592    -0.60700
O173        O  0.13598993  0.07297092  0.10617410    -0.51600
C174        C  0.19229736  0.06740603  0.15553117     0.70400
O175        O  0.21150064  0.06650963  0.13942733    -0.46500
C176        C  0.18239514  0.14305250  0.11879703     0.75100
O177        O  0.22156565  0.07491784  0.09023240    -0.58300
O178        O  0.15963340  0.12934300  0.11317281    -0.48400
O179        O  0.18585653  0.09435888  0.07261500    -0.54800
C180        C  0.14215059  0.04654987  0.10318965     0.85300
O181        O  0.16888397  0.07898076  0.14921273    -0.56700
O182        O  0.20469028  0.12763666  0.12109993    -0.60000
In183      In  0.20358901  0.46206874  0.36122754     1.36900
C184        C  0.21080500  0.48714847  0.31926103     0.77700
O185        O  0.24946693  0.44734106  0.35760382    -0.60700
O186        O  0.21629915  0.41520015  0.35739701    -0.51600
C187        C  0.21755121  0.47742507  0.40536024     0.70400
O188        O  0.22522001  0.49221983  0.38741597    -0.46500
C189        C  0.14603931  0.46328823  0.36409974     0.75100
O190        O  0.21576881  0.99996653  0.33990592    -0.58300
O191        O  0.15995388  0.43975069  0.36401636    -0.48400
O192        O  0.20284549  0.46109515  0.32146799    -0.54800
C193        C  0.24310972  0.42083904  0.35644035     0.85300
O194        O  0.20235989  0.45547121  0.40057966    -0.56700
O195        O  0.16147883  0.48574832  0.36229618    -0.60000
In196      In  0.33478910  0.48423740  0.60978897     1.36900
C197        C  0.30463663  0.48388679  0.56943527     0.77700
O198        O  0.34932041  0.03122989  0.60373791    -0.60700
O199        O  0.38062990  0.49807164  0.60246204    -0.51600
C200        C  0.32632359  0.50092922  0.65447059     0.70400
O201        O  0.30722110  0.50447017  0.63843994    -0.46500
C202        C  0.33562383  0.42766009  0.61703462     0.75100
O203        O  0.29431900  0.49379398  0.58871543    -0.58300
O204        O  0.35828696  0.44169312  0.61171667    -0.48400
O205        O  0.33043392  0.47514581  0.57079625    -0.54800
C206        C  0.37590699  0.02553851  0.60210095     0.85300
O207        O  0.34851897  0.48765838  0.64754608    -0.56700
O208        O  0.31291303  0.44258696  0.61871031    -0.60000
C209        C  0.22124452  0.48007153  0.47303674    -0.22300
C210        C  0.25082273  0.48541788  0.47641664     0.09700
C211        C  0.26874836  0.49076155  0.45647987     0.10100
C212        C  0.25667948  0.49022775  0.43343306    -0.17200
C213        C  0.22728175  0.48373200  0.42992520    -0.27600
C214        C  0.20913251  0.47937488  0.45001689     0.18400
C215        C  0.26271707  0.48485265  0.50099139     0.12400
C216        C  0.30301983  0.99653967  0.46094528    -0.12000
H217        H  0.27302742  0.99311571  0.41934449     0.12700
C218        C  0.17693316  0.47441908  0.44794107    -0.22800
H219        H  0.20755164  0.47632603  0.48847792     0.08300
C220        C  0.26243414  0.50965505  0.51570139     0.04600
C221        C  0.27509241  0.50835178  0.53854988    -0.20100
C222        C  0.28820266  0.48286105  0.54679646    -0.12300
C223        C  0.28719165  0.45759209  0.53241942     0.13300
C224        C  0.27466329  0.45903698  0.50957929    -0.22800
C225        C  0.25236164  0.03836685  0.50784640    -0.05800
H226        H  0.27847427  0.02849011  0.55058980     0.14900
C227        C  0.29832417  0.42859732  0.54074895    -0.16000
H228        H  0.27424079  0.43988014  0.49833699     0.09200
H229        H  0.16539526  0.49040078  0.45926034     0.07000
H230        H  0.17148982  0.45227383  0.45427762     0.08200
H231        H  0.16864337  0.47714190  0.42946516     0.07300
H232        H  0.31096303  0.47710495  0.46815354     0.02200
H233        H  0.30647183  0.01600728  0.47226475     0.02700
H234        H  0.31395601  0.00023019  0.44351833     0.06200
H235        H  0.25435587  0.05589915  0.52136067     0.05100
H236        H  0.22904495  0.03530222  0.50366457    -0.00600
H237        H  0.26387640  0.04539770  0.49140424     0.00800
H238        H  0.28064105  0.41227675  0.53958945     0.04500
H239        H  0.30598583  0.42875122  0.55954422     0.06400
H240        H  0.31639319  0.42158197  0.52905642     0.07300
C241        C  0.17905149  0.03504430  0.21706712    -0.22300
C242        C  0.20712204  0.03525254  0.22646316     0.09700
C243        C  0.23042274  0.04523741  0.21245244     0.10100
C244        C  0.22498739  0.05537044  0.18923116    -0.17200
C245        C  0.19675556  0.05585858  0.17988242    -0.27600
C246        C  0.17345557  0.04519976  0.19391876     0.18400
C247        C  0.21141561  0.02415247  0.25092019     0.12400
C248        C  0.26086696  0.04543035  0.22213132    -0.12000
H249        H  0.24281981  0.06334217  0.17846018     0.12700
C250        C  0.14280438  0.04359053  0.18458338    -0.22800
H251        H  0.16144452  0.02683696  0.22798972     0.08300
C252        C  0.20527606  0.04126778  0.27115093     0.04600
C253        C  0.20664586  0.02867318  0.29395761    -0.20100
C254        C  0.21431159  0.99948550  0.29683063    -0.12300
C255        C  0.22810287  0.48583771  0.27641075     0.13300
C256        C  0.22041151  0.99550117  0.25379084    -0.22800
C257        C  0.19700838  0.07263435  0.26857147    -0.05800
H258        H  0.20068696  0.04136328  0.30949679     0.14900
C259        C  0.24433210  0.45780083  0.27946987    -0.16000
H260        H  0.23593655  0.48604875  0.23841655     0.09200
H261        H  0.13439726  0.06566773  0.18115792     0.07000
H262        H  0.12799095  0.03324099  0.19768757     0.08200
H263        H  0.14208972  0.03061652  0.16784925     0.07300
H264        H  0.26760720  0.02300275  0.22651472     0.02200
H265        H  0.26191480  0.05889942  0.23857202     0.02700
H266        H  0.27648452  0.05443352  0.20896914     0.06200
H267        H  0.19322332  0.08298290  0.28622823     0.05100
H268        H  0.17685109  0.07449312  0.25784643    -0.00600
H269        H  0.21468783  0.08464632  0.25943293     0.00800
H270        H  0.23311046  0.44028121  0.26944760     0.04500
H271        H  0.24670660  0.45113123  0.29840430     0.06400
H272        H  0.26656910  0.46036587  0.27221841     0.07300
C273        C  0.25759549  0.06445440  0.96010335    -0.22300
C274        C  0.26749128  0.08276403  0.97837049     0.09700
C275        C  0.28979680  0.10279396  0.97368068     0.10100
C276        C  0.30128345  0.10452925  0.95057887    -0.17200
C277        C  0.29047260  0.08735933  0.93171834    -0.27600
C278        C  0.26812295  0.06692654  0.93661959     0.18400
C279        C  0.25266870  0.08229335  0.00179406     0.12400
C280        C  0.30073539  0.12311233  0.99281945    -0.12000
H281        H  0.31836994  0.12013130  0.94711620     0.12700
C282        C  0.25330239  0.04856864  0.91784492    -0.22800
H283        H  0.24033853  0.04918601  0.96396298     0.08300
C284        C  0.22518807  0.09495169  0.00468022     0.04600
C285        C  0.21226025  0.09481837  0.02732060    -0.20100
C286        C  0.22646136  0.08317777  0.04742848    -0.12300
C287        C  0.25457217  0.07134636  0.04453910     0.13300
C288        C  0.26699948  0.07058416  0.02162707    -0.22800
C289        C  0.20987534  0.10941489  0.98404922    -0.05800
H290        H  0.19098869  0.10434711  0.02931466     0.14900
C291        C  0.27201315  0.06001521  0.06532023    -0.16000
H292        H  0.28832876  0.06134824  0.01918136     0.09200
H293        H  0.22953957  0.04867623  0.92088085     0.07000
H294        H  0.26106295  0.02591251  0.91921198     0.08200
H295        H  0.25612523  0.05648977  0.89938158     0.07300
H296        H  0.31038935  0.11056365  0.00774578     0.02200
H297        H  0.28255268  0.13629657  0.99975222     0.02700
H298        H  0.31757430  0.13813786  0.98588151     0.06200
H299        H  0.18890444  0.11895767  0.98961207     0.05100
H300        H  0.20538568  0.09341255  0.96969344    -0.00600
H301        H  0.22363336  0.12712278  0.97679540     0.00800
H302        H  0.29364526  0.05222075  0.05960338     0.04500
H303        H  0.26054011  0.04154117  0.07381464     0.06400
H304        H  0.27555141  0.07756524  0.07860664     0.07300
C305        C  0.34341700  0.03349225  0.71726453    -0.22300
C306        C  0.31549317  0.03563230  0.72663473     0.09700
C307        C  0.29173188  0.53065863  0.71070324     0.10100
C308        C  0.29565392  0.51911796  0.68769616    -0.17200
C309        C  0.32337887  0.51201963  0.67923596    -0.27600
C310        C  0.34811499  0.02271228  0.69420532     0.18400
C311        C  0.31232435  0.04777155  0.75085793     0.12400
C312        C  0.26177795  0.53826899  0.71914876    -0.12000
H313        H  0.27697246  0.51569259  0.67626496     0.12700
C314        C  0.37883698  0.02165824  0.68505231    -0.22800
H315        H  0.36166887  0.04043448  0.72814790     0.08300
C316        C  0.31480859  0.03021510  0.77135625     0.04600
C317        C  0.31480313  0.04323206  0.79399312    -0.20100
C318        C  0.31293772  0.07341599  0.79655518    -0.12300
C319        C  0.30964692  0.09092681  0.77583117     0.13300
C320        C  0.30937104  0.07773509  0.75325223    -0.22800
C321        C  0.31806179  0.99787539  0.76923425    -0.05800
H322        H  0.31718152  0.02972806  0.80980607     0.14900
C323        C  0.30616168  0.12336513  0.77716168    -0.16000
H324        H  0.30753567  0.09093332  0.73722304     0.09200
H325        H  0.38532214  0.99888527  0.68183177     0.07000
H326        H  0.39448883  0.03094920  0.69812133     0.08200
H327        H  0.38069635  0.03434912  0.66823573     0.07300
H328        H  0.26076188  0.56173033  0.72337692     0.02200
H329        H  0.25640823  0.52564680  0.73545930     0.02700
H330        H  0.24513433  0.53342575  0.70532654     0.06200
H331        H  0.31974170  0.98734876  0.78705982     0.05100
H332        H  0.33795092  0.99273132  0.75898791    -0.00600
H333        H  0.28916005  0.49232833  0.75782470     0.00800
H334        H  0.32619463  0.13350203  0.78433106     0.04500
H335        H  0.28746643  0.12883070  0.78875591     0.06400
H336        H  0.30212304  0.13301353  0.75924808     0.07300
C337        C  0.01460887  0.07446201  0.96952481    -0.22300
C338        C  0.00858546  0.04518041  0.97361344     0.09700
C339        C  0.99300920  0.02900435  0.95650776     0.10100
C340        C  0.48346573  0.04162036  0.93511568    -0.17200
C341        C  0.49008886  0.07080043  0.93055547    -0.27600
C342        C  0.00607498  0.08801662  0.94826482     0.18400
C343        C  0.01980642  0.03172421  0.99563292     0.12400
C344        C  0.98650130  0.99737505  0.96040099    -0.12000
H345        H  0.47095496  0.02938636  0.92212106     0.12700
C346        C  0.01633029  0.11874623  0.94438769    -0.22800
H347        H  0.02701679  0.08655948  0.98271174     0.08300
C348        C  0.04866602  0.02225590  0.99716692     0.04600
C349        C  0.05875760  0.01067507  0.01875368    -0.20100
C350        C  0.04070394  0.00850151  0.03894338    -0.12300
C351        C  0.01151455  0.01779115  0.03715760     0.13300
C352        C  0.00148614  0.02923105  0.01541958    -0.22800
C353        C  0.06878527  0.02442534  0.97602397    -0.05800
H354        H  0.08109430  0.00376407  0.01991372     0.14900
C355        C  0.99067006  0.01582207  0.05781827    -0.16000
H356        H  0.47937605  0.03579063  0.01331075     0.09200
H357        H  0.04012172  0.11989092  0.94721849     0.07000
H358        H  0.50651530  0.13217321  0.95631171     0.08200
H359        H  0.51366984  0.12543270  0.92507565     0.07300
H360        H  0.47260126  0.99422728  0.97690725     0.02200
H361        H  0.00704520  0.98520292  0.96237603     0.02700
H362        H  0.47261873  0.48716149  0.94563600     0.06200
H363        H  0.09064865  0.01589189  0.98026174     0.05100
H364        H  0.07122407  0.04740485  0.97053171    -0.00600
H365        H  0.05983915  0.01174353  0.96081281     0.00800
H366        H  0.49807448  0.02967328  0.07219266     0.04500
H367        H  0.98897124  0.99304014  0.06402242     0.06400
H368        H  0.46858104  0.02256913  0.05220308     0.07300
C369        C  0.43191978  0.29056797  0.50581519    -0.22300
C370        C  0.45931653  0.28861688  0.49531744     0.09700
C371        C  0.48250919  0.27658518  0.50836479     0.10100
C372        C  0.47738436  0.26564321  0.53145011    -0.17200
C373        C  0.44977551  0.26712878  0.54185144    -0.27600
C374        C  0.42692494  0.28067226  0.52911870     0.18400
C375        C  0.46317727  0.30129996  0.47123978     0.12400
C376        C  0.01291016  0.27705633  0.49900860    -0.12000
H377        H  0.49496265  0.25578969  0.54139008     0.12700
C378        C  0.39747411  0.28665859  0.53972596    -0.22800
H379        H  0.41444769  0.30077803  0.49595323     0.08300
C380        C  0.46069260  0.28442333  0.45030054     0.04600
C381        C  0.46105792  0.29816952  0.42787560    -0.20100
C382        C  0.46275457  0.32848006  0.42600769    -0.12300
C383        C  0.46605727  0.34527066  0.44713625     0.13300
C384        C  0.46634672  0.33136590  0.46945386    -0.22800
C385        C  0.45624476  0.25212007  0.45162353    -0.05800
H386        H  0.45859402  0.28528821  0.41181716     0.14900
C387        C  0.46942198  0.37777803  0.44652838    -0.16000
H388        H  0.46811505  0.34405208  0.48569574     0.09200
H389        H  0.38074087  0.27390628  0.53002439     0.07000
H390        H  0.39241744  0.31003425  0.53773476     0.08200
H391        H  0.39594293  0.28188220  0.55907502     0.07300
H392        H  0.01982033  0.29956576  0.49490460     0.02200
H393        H  0.01342104  0.26408456  0.48232356     0.02700
H394        H  0.02878359  0.26761843  0.51173326     0.06200
H395        H  0.45439348  0.24228375  0.43354643     0.05100
H396        H  0.43603468  0.24724054  0.46158689    -0.00600
H397        H  0.47472130  0.24178447  0.46092718     0.00800
H398        H  0.44923511  0.38794205  0.43986346     0.04500
H399        H  0.48786986  0.38383835  0.43480952     0.06400
H400        H  0.47376648  0.38684033  0.46460408     0.07300
C401        C  0.00023391  0.26764369  0.70679531    -0.22300
C402        C  0.99739237  0.24422603  0.72255383     0.09700
C403        C  0.47960953  0.22216636  0.71513907     0.10100
C404        C  0.46729610  0.22113348  0.69222318    -0.17200
C405        C  0.47237100  0.24319014  0.67544854    -0.27600
C406        C  0.98717762  0.26710766  0.68406124     0.18400
C407        C  0.01246764  0.24500304  0.74594696     0.12400
C408        C  0.47383577  0.19784027  0.73250554    -0.12000
H409        H  0.45392281  0.20276503  0.68724496     0.12700
C410        C  0.98902087  0.29428971  0.66917534    -0.22800
H411        H  0.01245449  0.28656860  0.71237914     0.08300
C412        C  0.04087128  0.23438671  0.74833047     0.04600
C413        C  0.05282419  0.23114591  0.77124301    -0.20100
C414        C  0.03696153  0.23807500  0.79186046    -0.12300
C415        C  0.00878020  0.24985471  0.78938499     0.13300
C416        C  0.99710220  0.25349196  0.76634784    -0.22800
C417        C  0.05810112  0.22542747  0.72671903    -0.05800
H418        H  0.07434603  0.22215187  0.77312916     0.14900
C419        C  0.98937310  0.25684804  0.81027116    -0.16000
H420        H  0.47582524  0.26419209  0.76305716     0.09200
H421        H  0.01197533  0.29887782  0.66466423     0.07000
H422        H  0.98034028  0.31275981  0.67963705     0.08200
H423        H  0.97631352  0.29321182  0.65240066     0.07300
H424        H  0.46301593  0.20644207  0.74872647     0.02200
H425        H  0.49454133  0.18748051  0.73775837     0.02700
H426        H  0.45958217  0.18091904  0.72460344     0.06200
H427        H  0.07992285  0.21742333  0.73174668     0.05100
H428        H  0.06088562  0.24423221  0.71454866    -0.00600
H429        H  0.04659071  0.20780963  0.71703468     0.00800
H430        H  0.98393495  0.28024116  0.80993082     0.04500
H431        H  0.99889401  0.25180739  0.82791485     0.06400
H432        H  0.46871052  0.24682586  0.80716279     0.07300
C433        C  0.07024397  0.31433164  0.99742933    -0.22300
C434        C  0.06465456  0.28471534  0.99453131     0.09700
C435        C  0.05968487  0.26723946  0.01483387     0.10100
C436        C  0.06117063  0.27972064  0.03773539    -0.17200
C437        C  0.06786211  0.30917996  0.04072714    -0.27600
C438        C  0.07170555  0.32688875  0.02025749     0.18400
C439        C  0.06559054  0.27227401  0.97011681     0.12400
C440        C  0.05324861  0.23539031  0.01229634    -0.12000
H441        H  0.05832001  0.26616959  0.05340229     0.12700
C442        C  0.07681307  0.35911817  0.02168292    -0.22800
H443        H  0.07375243  0.32770540  0.98173763     0.08300
C444        C  0.04206852  0.27472772  0.95413244     0.04600
C445        C  0.04437496  0.26291218  0.93106625    -0.20100
C446        C  0.06970669  0.24882064  0.92362840    -0.12300
C447        C  0.09365794  0.24724757  0.93947797     0.10100
C448        C  0.09105192  0.25862747  0.96264512    -0.22800
C449        C  0.01447494  0.28945767  0.96153946    -0.05800
H450        H  0.02609764  0.26420106  0.91891744     0.14900
C451        C  0.12269441  0.23506312  0.93244869    -0.16000
H452        H  0.10927817  0.25739725  0.97486476     0.09200
H453        H  0.06014897  0.37046070  0.01086670     0.07000
H454        H  0.09852155  0.36440972  0.01434934     0.08200
H455        H  0.07533879  0.36778464  0.04011479     0.07300
H456        H  0.07163534  0.22439883  0.00338547     0.02200
H457        H  0.03336250  0.23231275  0.00137813     0.02700
H458        H  0.04977398  0.22489853  0.02995292     0.06200
H459        H  0.49540233  0.28650301  0.94721412     0.05100
H460        H  0.01900174  0.31242115  0.96612702    -0.00600
H461        H  0.00519631  0.27832072  0.97739574     0.00800
H462        H  0.13983965  0.25148612  0.93591090     0.04500
H463        H  0.12420382  0.22929541  0.91327567     0.06400
H464        H  0.12736861  0.21554014  0.94335954     0.07300
C465        C  0.04073657  0.36166763  0.21506265    -0.22300
C466        C  0.01786034  0.34253959  0.21982039     0.09700
C467        C  0.49980875  0.33110392  0.19850535     0.10100
C468        C  0.02341240  0.32204656  0.18003724    -0.17200
C469        C  0.04679235  0.34076077  0.17527600    -0.27600
C470        C  0.05539834  0.36106684  0.19305124     0.18400
C471        C  0.49942716  0.34285208  0.24272905     0.12400
C472        C  0.46822345  0.32296606  0.19923393    -0.12000
H473        H  0.50362274  0.32265772  0.16079368     0.12700
C474        C  0.07945504  0.38268838  0.18894120    -0.22800
H475        H  0.04720862  0.37701246  0.22873510     0.08300
C476        C  0.01368714  0.32644347  0.26281977     0.04600
C477        C  0.48834201  0.32490703  0.28258815    -0.20100
C478        C  0.47561441  0.35147696  0.28885154    -0.12300
C479        C  0.47360669  0.37354997  0.27112575     0.13300
C480        C  0.48578424  0.36892170  0.24842531    -0.22800
C481        C  0.03825556  0.30547792  0.25950096    -0.05800
H482        H  0.48961642  0.30774788  0.29577577     0.14900
C483        C  0.45917529  0.40224529  0.27577509    -0.16000
H484        H  0.48518279  0.38598557  0.23508179     0.09200
H485        H  0.08198466  0.39781021  0.20427502     0.07000
H486        H  0.07471260  0.39583939  0.17276644     0.08200
H487        H  0.10035117  0.37124805  0.18668670     0.07300
H488        H  0.45528048  0.34183405  0.20518727     0.02200
H489        H  0.46486344  0.30477694  0.21192426     0.02700
H490        H  0.46011075  0.31609758  0.18138157     0.06200
H491        H  0.04348150  0.29385464  0.27635756     0.05100
H492        H  0.05794711  0.31734298  0.25362539    -0.00600
H493        H  0.03241958  0.28911422  0.24576253     0.00800
H494        H  0.47053406  0.41395408  0.29038565     0.04500
H495        H  0.43613918  0.39866802  0.28062798     0.06400
H496        H  0.45958882  0.41648729  0.25975241     0.07300
C497        C  0.02630665  0.00135840  0.20676225    -0.22300
C498        C  0.04818565  0.49539522  0.22210779     0.09700
C499        C  0.07508448  0.48534395  0.21382342     0.10100
C500        C  0.07979445  0.48331852  0.18923007    -0.17200
C501        C  0.05831859  0.49115167  0.17259906    -0.27600
C502        C  0.03056746  0.00028606  0.18186611     0.18400
C503        C  0.04165297  0.49506823  0.24782817     0.12400
C504        C  0.09869651  0.47632390  0.23094534    -0.12000
H505        H  0.10046402  0.47524168  0.18301920     0.12700
C506        C  0.00511746  0.00582215  0.16562951    -0.22800
H507        H  0.00493898  0.00542906  0.21393616     0.08300
C508        C  0.04954274  0.51822133  0.26294965     0.04600
C509        C  0.04829706  0.51427732  0.28781041    -0.20100
C510        C  0.03944338  0.48766519  0.29751214    -0.12300
C511        C  0.02864088  0.46565546  0.28222681     0.13300
C512        C  0.03032763  0.46952280  0.25749078    -0.22800
C513        C  0.06026217  0.54650494  0.25281347    -0.05800
H514        H  0.05606171  0.53126780  0.29960367     0.14900
C515        C  0.01521189  0.43788675  0.29124728    -0.16000
H516        H  0.02368832  0.45211148  0.24564354     0.09200
H517        H  0.98520059  0.01084574  0.17591260     0.07000
H518        H  0.00057682  0.98634326  0.15458673     0.08200
H519        H  0.00981527  0.02463455  0.15386783     0.07300
H520        H  0.09093458  0.45822870  0.24236439     0.02200
H521        H  0.10496236  0.49487172  0.24249810     0.02700
H522        H  0.11838399  0.46893807  0.22136970     0.06200
H523        H  0.06548688  0.56234732  0.26715835     0.05100
H524        H  0.03475601  0.05432019  0.24396314    -0.00600
H525        H  0.08011245  0.54292641  0.24207361     0.00800
H526        H  0.53246106  0.41349751  0.27535459     0.04500
H527        H  0.01193363  0.43767958  0.31088171     0.06400
H528        H  0.02894207  0.41921652  0.28611947     0.07300
C529        C  0.46800680  0.10383095  0.70987267    -0.22300
C530        C  0.46845574  0.07645911  0.72062029     0.09700
C531        C  0.46588672  0.05133354  0.70642397     0.10100
C532        C  0.46253703  0.05422280  0.68156352    -0.17200
C533        C  0.46117855  0.08168493  0.67092971    -0.27600
C534        C  0.46427267  0.10681276  0.68516444     0.18400
C535        C  0.46901895  0.07513523  0.74697295     0.12400
C536        C  0.46609121  0.02166964  0.71759048    -0.12000
H537        H  0.45971883  0.03510221  0.67053793     0.12700
C538        C  0.46354383  0.13706094  0.67497712    -0.22800
H539        H  0.46984816  0.12303725  0.72095592     0.08300
C540        C  0.49495616  0.07857102  0.76003936     0.04600
C541        C  0.49371284  0.08075486  0.78506364    -0.20100
C542        C  0.46702946  0.08060897  0.79697712    -0.12300
C543        C  0.44110922  0.07646263  0.78387928     0.13300
C544        C  0.44250388  0.07351820  0.75899570    -0.22800
C545        C  0.52369072  0.08097123  0.74749822    -0.05800
H546        H  0.51342209  0.08441541  0.79520798     0.14900
C547        C  0.41163515  0.07545553  0.79547136    -0.16000
H548        H  0.42265428  0.07104031  0.74878057     0.09200
H549        H  0.99581177  0.14169101  0.67863873     0.07000
H550        H  0.44495848  0.14898144  0.68271282     0.08200
H551        H  0.46148627  0.13751717  0.65522261     0.07300
H552        H  0.44780591  0.01954406  0.73034409     0.02200
H553        H  0.48679385  0.01836252  0.72732382     0.02700
H554        H  0.46385690  0.00434396  0.70391536     0.06200
H555        H  0.03711734  0.06517792  0.76269871     0.05100
H556        H  0.02457248  0.08458512  0.73679934    -0.00600
H557        H  0.52761228  0.06109177  0.73683924     0.00800
H558        H  0.39829328  0.09370739  0.78877657     0.04500
H559        H  0.41258209  0.07674329  0.81526387     0.06400
H560        H  0.40066217  0.05477670  0.79077033     0.07300
C561        C  0.48107279  0.06466502  0.49340170    -0.22300
C562        C  0.50931520  0.05399999  0.49496617     0.09700
C563        C  0.02309951  0.05329476  0.51743802     0.10100
C564        C  0.50933689  0.06419485  0.53758957    -0.17200
C565        C  0.48032118  0.07339564  0.53646331    -0.27600
C566        C  0.46628152  0.07432365  0.51381608     0.18400
C567        C  0.52166370  0.03960111  0.47365010     0.12400
C568        C  0.05369136  0.04239308  0.51954058    -0.12000
H569        H  0.01984541  0.06292176  0.55493094     0.12700
C570        C  0.43553711  0.08455819  0.51079173    -0.22800
H571        H  0.47017900  0.06426707  0.47624452     0.08300
C572        C  0.02110462  0.50815192  0.47163529     0.04600
C573        C  0.03129195  0.49605865  0.45028944    -0.20100
C574        C  0.03818576  0.51340018  0.43040843    -0.12300
C575        C  0.04560199  0.04182993  0.43556367     0.13300
C576        C  0.03562002  0.05465312  0.45682735    -0.22800
C577        C  0.49735001  0.49066039  0.48723244    -0.05800
H578        H  0.03263054  0.47270017  0.44882079     0.14900
C579        C  0.06252104  0.06068295  0.41852189    -0.16000
H580        H  0.03948330  0.07753328  0.46000770     0.09200
H581        H  0.42849950  0.08397537  0.49177707     0.07000
H582        H  0.43364101  0.10728111  0.51706568     0.08200
H583        H  0.42059951  0.07034539  0.52103681     0.07300
H584        H  0.06808791  0.05534026  0.50774481     0.02200
H585        H  0.05468785  0.01931082  0.51409211     0.02700
H586        H  0.06198267  0.04411256  0.53816078     0.06200
H587        H  0.49572016  0.46777821  0.48122938     0.05100
H588        H  0.47505216  0.49913660  0.48937522    -0.00600
H589        H  0.02401502  0.49252136  0.50801093     0.00800
H590        H  0.04839376  0.07823737  0.41166167     0.04500
H591        H  0.07153060  0.04871040  0.40312715     0.06400
H592        H  0.08112643  0.07060938  0.42816004     0.07300
C593        C  0.26311235  0.27763540  0.26790003    -0.22300
C594        C  0.26326487  0.29507946  0.24741511     0.09700
C595        C  0.27390128  0.32364705  0.24882485     0.10100
C596        C  0.28378102  0.33433973  0.27088701    -0.17200
C597        C  0.28325340  0.31721997  0.29174519    -0.27600
C598        C  0.27297337  0.28822827  0.29008016     0.18400
C599        C  0.25084769  0.28341482  0.22492165     0.12400
C600        C  0.27462291  0.34290401  0.22705936    -0.12000
H601        H  0.29158510  0.35647716  0.27183626     0.12700
C602        C  0.27209372  0.26820715  0.31136858    -0.22800
H603        H  0.25484450  0.25569028  0.26652882     0.08300
C604        C  0.26771181  0.26771662  0.20843486     0.04600
C605        C  0.25470880  0.25703001  0.18744015    -0.20100
C606        C  0.22521475  0.26163781  0.18270667    -0.12300
C607        C  0.20857634  0.27822806  0.19896921     0.13300
C608        C  0.22155581  0.28843923  0.22005915    -0.22800
C609        C  0.29933127  0.26221709  0.21308640    -0.05800
H610        H  0.26749831  0.24468566  0.17483661     0.14900
C611        C  0.17757604  0.28689258  0.19435402    -0.16000
H612        H  0.20887358  0.30096509  0.23262050     0.09200
H613        H  0.26403309  0.24629392  0.30646101     0.07000
H614        H  0.25731043  0.27697709  0.32519684     0.08200
H615        H  0.29420130  0.26569952  0.31889861     0.07300
H616        H  0.25236442  0.34576793  0.21994585     0.02200
H617        H  0.28834979  0.33297504  0.21302272     0.02700
H618        H  0.28362429  0.36466464  0.23125643     0.06200
H619        H  0.30936431  0.24952982  0.19841942     0.05100
H620        H  0.30189973  0.24987870  0.23000561    -0.00600
H621        H  0.31112210  0.28312572  0.21463838     0.00800
H622        H  0.16328180  0.27664428  0.20790215     0.04500
H623        H  0.16960852  0.28109239  0.17629565     0.06400
H624        H  0.17562649  0.31078431  0.19586873     0.07300
C625        C  0.27733047  0.31737952  0.51726405    -0.22300
C626        C  0.29771347  0.32842560  0.50112758     0.09700
C627        C  0.32350083  0.34115619  0.50959024     0.10100
C628        C  0.32858151  0.34223004  0.53415768    -0.17200
C629        C  0.30840807  0.33114833  0.55062780    -0.27600
C630        C  0.28232828  0.31853317  0.54206298     0.18400
C631        C  0.29154608  0.32797964  0.47531798     0.12400
C632        C  0.34553674  0.35403139  0.49270128    -0.12000
H633        H  0.34849358  0.35211169  0.54047233     0.12700
C634        C  0.25984050  0.30608043  0.55866981    -0.22800
H635        H  0.25746571  0.30792596  0.51038191     0.08300
C636        C  0.30354694  0.30669376  0.46027148     0.04600
C637        C  0.30284874  0.31088732  0.43541012    -0.20100
C638        C  0.29055722  0.33597938  0.42561130    -0.12300
C639        C  0.27614315  0.35586949  0.44072414     0.13300
C640        C  0.27711370  0.35171303  0.46547848    -0.22800
C641        C  0.31804410  0.28028894  0.47056323    -0.05800
H642        H  0.31353703  0.29554336  0.42376061     0.14900
C643        C  0.25972391  0.38177591  0.43148408    -0.16000
H644        H  0.26762258  0.36775512  0.47724713     0.09200
H645        H  0.26951191  0.28852943  0.56962146     0.07000
H646        H  0.24121338  0.29671266  0.54868181     0.08200
H647        H  0.25131655  0.32333888  0.57051753     0.07300
H648        H  0.33543923  0.37161337  0.48205818     0.02200
H649        H  0.35376479  0.33712986  0.48038874     0.02700
H650        H  0.36438113  0.36335343  0.50243478     0.06200
H651        H  0.32633412  0.26580443  0.45629590     0.05100
H652        H  0.30223565  0.26788831  0.48149937    -0.00600
H653        H  0.33657943  0.28675952  0.48207756     0.00800
H654        H  0.23738880  0.38141193  0.43880174     0.04500
H655        H  0.25761314  0.38209498  0.41173731     0.06400
H656        H  0.27064244  0.40200971  0.43743261     0.07300
C657        C  0.23473276  0.24852276  0.96070900    -0.22300
C658        C  0.21678871  0.23067117  0.97449850     0.09700
C659        C  0.19823125  0.21052197  0.96338526     0.10100
C660        C  0.19838365  0.20829722  0.93848772    -0.17200
C661        C  0.21632954  0.22605911  0.92436846    -0.27600
C662        C  0.23471090  0.24659288  0.93564803     0.18400
C663        C  0.21614027  0.23466152  0.00054540     0.12400
C664        C  0.17795315  0.19169208  0.97777561    -0.12000
H665        H  0.18408976  0.19268352  0.93002365     0.12700
C666        C  0.25452341  0.26626802  0.92166550    -0.22800
H667        H  0.24858801  0.26415384  0.96963976     0.08300
C668        C  0.23330365  0.21776125  0.01601059     0.04600
C669        C  0.22960869  0.22057572  0.04078157    -0.20100
C670        C  0.20872399  0.23939199  0.05008659    -0.12300
C671        C  0.19236481  0.25713027  0.03450889     0.13300
C672        C  0.19635979  0.25450380  0.00984701    -0.22800
C673        C  0.25471243  0.19620350  0.00635929    -0.05800
H674        H  0.24185389  0.20689689  0.05285452     0.14900
C675        C  0.17060847  0.27904004  0.04316893    -0.16000
H676        H  0.18340254  0.26747782  0.99772448     0.09200
H677        H  0.26973728  0.25316703  0.91081718     0.07000
H678        H  0.26760959  0.28044396  0.93360421     0.08200
H679        H  0.24156510  0.28050679  0.90979620     0.07300
H680        H  0.16273331  0.20550020  0.98800040     0.02200
H681        H  0.19045847  0.17810841  0.99046029     0.02700
H682        H  0.16496796  0.17703616  0.96616592     0.06200
H683        H  0.26630621  0.18476783  0.02098310     0.05100
H684        H  0.27100188  0.20754157  0.99513872    -0.00600
H685        H  0.24335660  0.17971669  0.99530532     0.00800
H686        H  0.17623091  0.30070779  0.03586790     0.04500
H687        H  0.17004273  0.28112587  0.06290921     0.06400
H688        H  0.14864604  0.27291976  0.03675251     0.07300
C689        C  0.26831841  0.25125935  0.75364856    -0.22300
C690        C  0.26346369  0.28098732  0.75115251     0.09700
C691        C  0.24821660  0.29614998  0.76895818     0.10100
C692        C  0.23802882  0.28105951  0.78906182    -0.17200
C693        C  0.24247672  0.25111741  0.79150864    -0.27600
C694        C  0.25806410  0.23604094  0.77361268     0.18400
C695        C  0.27429701  0.29552086  0.72941933     0.12400
C696        C  0.24297258  0.32820764  0.76676014    -0.12000
H697        H  0.22628336  0.29264651  0.80282261     0.12700
C698        C  0.26482212  0.20419445  0.77566718    -0.22800
H699        H  0.28021259  0.23994137  0.73981460     0.08300
C700        C  0.30371302  0.30298825  0.72694425     0.04600
C701        C  0.31345331  0.31436424  0.70516436    -0.20100
C702        C  0.29454366  0.31795578  0.68562920    -0.12300
C703        C  0.26472266  0.31135867  0.68851886     0.13300
C704        C  0.25504229  0.30028475  0.71048078    -0.22800
C705        C  0.32485405  0.29862064  0.74718711    -0.05800
H706        H  0.33622078  0.31949979  0.70318353     0.14900
C707        C  0.24290052  0.31575286  0.66876314    -0.16000
H708        H  0.23241247  0.29453360  0.71275055     0.09200
H709        H  0.27871617  0.19661141  0.76073900     0.07000
H710        H  0.24451626  0.19129864  0.77508804     0.08200
H711        H  0.27652519  0.19991831  0.79268076     0.07300
H712        H  0.23003916  0.33270760  0.75042215     0.02200
H713        H  0.26400101  0.33984850  0.76555647     0.02700
H714        H  0.23096996  0.33681174  0.78240861     0.06200
H715        H  0.34697088  0.30610959  0.74237683     0.05100
H716        H  0.32607561  0.27529011  0.75183515    -0.00600
H717        H  0.31766773  0.31101501  0.76311557     0.00800
H718        H  0.22049840  0.31095098  0.67483192     0.04500
H719        H  0.24760475  0.30102833  0.65358383     0.06400
H720        H  0.24351308  0.33861362  0.66262417     0.07300
In721      In  0.21410047  0.70952474  0.85240002     1.36900
C722        C  0.21616630  0.72132856  0.89850159     0.77700
O723        O  0.17124725  0.73129634  0.84958740    -0.60700
O724        O  0.17177403  0.68520107  0.84868793    -0.51600
C725        C  0.23022492  0.73728569  0.81337749     0.70400
O726        O  0.22870118  0.74968895  0.83351406    -0.46500
C727        C  0.25541591  0.67029717  0.85411961     0.75100
O728        O  0.22645039  0.73858472  0.88309268    -0.58300
O729        O  0.22977090  0.66398375  0.84797021    -0.48400
O730        O  0.20479813  0.69876862  0.88991926    -0.54800
C731        C  0.15681752  0.70806995  0.84912139     0.85300
O732        O  0.22235393  0.71108290  0.81329768    -0.56700
O733        O  0.25998219  0.69666631  0.85856820    -0.60000
In734      In  0.33304576  0.84005276  0.62251500     1.36900
C735        C  0.31739733  0.83466357  0.57737308     0.77700
O736        O  0.31256898  0.88363551  0.62214901    -0.60700
O737        O  0.35861361  0.88180245  0.62282586    -0.51600
C738        C  0.30726890  0.82842785  0.66357620     0.70400
O739        O  0.29472257  0.82555502  0.64361500    -0.46500
C740        C  0.37156679  0.79787859  0.62191129     0.75100
O741        O  0.30006570  0.82924596  0.59429512    -0.58300
O742        O  0.37848767  0.82395860  0.62596270    -0.48400
O743        O  0.34229615  0.84254913  0.58399189    -0.54800
C744        C  0.33620096  0.89733011  0.62156594     0.85300
O745        O  0.33281163  0.83818602  0.66232627    -0.56700
O746        O  0.34485404  0.79323793  0.61922516    -0.60000
In747      In  0.30784737  0.85806599  0.35628666     1.36900
C748        C  0.29825502  0.84378573  0.40130900     0.77700
O749        O  0.35212171  0.83806093  0.35816866    -0.60700
O750        O  0.34961733  0.88366347  0.35415213    -0.51600
C751        C  0.29423187  0.83084471  0.31571805     0.70400
O752        O  0.29214779  0.81902424  0.33601114    -0.46500
C753        C  0.26721351  0.89846964  0.35561930     0.75100
O754        O  0.29627234  0.82535638  0.38467022    -0.58300
O755        O  0.29378551  0.90443769  0.35311353    -0.48400
O756        O  0.30625438  0.86866291  0.39486701    -0.54800
C757        C  0.36558711  0.86176633  0.35659997     0.85300
O758        O  0.30439681  0.85626024  0.31636725    -0.56700
O759        O  0.26143140  0.87187626  0.35740192    -0.60000
In760      In  0.18737687  0.73337847  0.12136343     1.36900
C761        C  0.20228392  0.73817589  0.07601217     0.77700
O762        O  0.20716779  0.68925132  0.12356021    -0.60700
O763        O  0.16137625  0.69169295  0.12102372    -0.51600
C764        C  0.21313350  0.75050194  0.16144035     0.70400
O765        O  0.22542055  0.75218964  0.14129629    -0.46500
C766        C  0.14775087  0.77456777  0.12068373     0.75100
O767        O  0.22094671  0.73965318  0.09255126    -0.58300
O768        O  0.14156301  0.74851831  0.12563801    -0.48400
O769        O  0.17666520  0.73405793  0.08280869    -0.54800
C770        C  0.18352524  0.67578521  0.12145133     0.85300
O771        O  0.18865354  0.73821947  0.16115987    -0.56700
O772        O  0.17421028  0.77958968  0.11699153    -0.60000
In773      In  0.43639052  0.58903768  0.60133248     1.36900
C774        C  0.45255137  0.58161217  0.64626519     0.77700
O775        O  0.45723257  0.63273036  0.60339934    -0.60700
O776        O  0.41138169  0.63099811  0.60000401    -0.51600
C777        C  0.46317449  0.57991880  0.55990055     0.70400
O778        O  0.47548198  0.57667008  0.57994403    -0.46500
C779        C  0.39635494  0.54758377  0.60012293     0.75100
O780        O  0.46844762  0.57387388  0.62906954    -0.58300
O781        O  0.39004203  0.57415142  0.59903398    -0.48400
O782        O  0.42869258  0.59261982  0.64042397    -0.54800
C783        C  0.43377478  0.64653280  0.60253174     0.85300
O784        O  0.43737475  0.58860391  0.56133094    -0.56700
O785        O  0.42305244  0.54226255  0.60104982    -0.60000
In786      In  0.05827076  0.96706380  0.36931410     1.36900
C787        C  0.04951516  0.97849516  0.32363257     0.77700
O788        O  0.10234553  0.98690980  0.36528321    -0.60700
O789        O  0.10013197  0.94181769  0.37250798    -0.51600
C790        C  0.04775482  0.99673090  0.40906328     0.70400
O791        O  0.04443566  0.00755238  0.38848519    -0.46500
C792        C  0.01654974  0.92733516  0.37025633     0.75100
O793        O  0.04626215  0.99767757  0.33956162    -0.58300
O794        O  0.04291276  0.92112158  0.37349184    -0.48400
O795        O  0.05800803  0.95438717  0.33131502    -0.54800
C796        C  0.11594331  0.96357601  0.36819498     0.85300
O797        O  0.05666265  0.97092296  0.40913886    -0.56700
O798        O  0.01137173  0.95399117  0.36815022    -0.60000
In799      In  0.08563556  0.83662762  0.11002678     1.36900
C800        C  0.05988534  0.83618908  0.15257157     0.77700
O801        O  0.09911364  0.79117191  0.11771052    -0.60700
O802        O  0.13201863  0.82353425  0.11504603    -0.51600
C803        C  0.07279319  0.81894474  0.06611684     0.70400
O804        O  0.05658552  0.81332245  0.08376858    -0.46500
C805        C  0.08469301  0.89359737  0.10347592     0.75100
O806        O  0.04698754  0.82862448  0.13352035    -0.58300
O807        O  0.10809347  0.87992479  0.10657662    -0.48400
O808        O  0.08588678  0.84375452  0.14950618    -0.54800
C809        C  0.12576354  0.79708014  0.11809563     0.85300
O810        O  0.09501921  0.83369808  0.07106953    -0.56700
O811        O  0.06214599  0.87808438  0.10335140    -0.60000
In812      In  0.06820350  0.71047796  0.85747626     1.36900
C813        C  0.06882953  0.73487652  0.90041201     0.77700
O814        O  0.02289899  0.69655966  0.86606471    -0.60700
O815        O  0.05415545  0.66384682  0.85946169    -0.51600
C816        C  0.04896825  0.72940557  0.81552809     0.70400
O817        O  0.04843030  0.74497877  0.83409233    -0.46500
C818        C  0.12510729  0.70819477  0.85061799     0.75100
O819        O  0.05822669  0.74730809  0.88228208    -0.58300
O820        O  0.11000789  0.68558291  0.85344920    -0.48400
O821        O  0.07865499  0.70987554  0.89655010    -0.54800
C822        C  0.02813199  0.66995025  0.86409747     0.85300
O823        O  0.06061438  0.70501175  0.81834571    -0.56700
O824        O  0.11099789  0.73149846  0.85054347    -0.60000
In825      In  0.43311683  0.73526992  0.61109546     1.36900
C826        C  0.45930377  0.73950207  0.65302103     0.77700
O827        O  0.41979083  0.78069683  0.61858765    -0.60700
O828        O  0.38665932  0.74859226  0.61634222    -0.51600
C829        C  0.44531343  0.75444798  0.56766898     0.70400
O830        O  0.46329632  0.75654462  0.58467915    -0.46500
C831        C  0.43301327  0.67816823  0.60504066     0.75100
O832        O  0.47151112  0.74704375  0.63374330    -0.58300
O833        O  0.40988652  0.69230515  0.60781398    -0.48400
O834        O  0.43429429  0.72876251  0.65057611    -0.54800
C835        C  0.39314199  0.77501999  0.61921847     0.85300
O836        O  0.42258245  0.74055818  0.57261518    -0.56700
O837        O  0.45585959  0.69322878  0.60524539    -0.60000
In838      In  0.45466119  0.86581782  0.36094136     1.36900
C839        C  0.45966203  0.84155784  0.40363952     0.77700
O840        O  0.50054793  0.87962569  0.36693903    -0.60700
O841        O  0.46819522  0.91237094  0.36574242    -0.51600
C842        C  0.46795278  0.85426358  0.31556261     0.70400
O843        O  0.47339318  0.83666920  0.33238883    -0.46500
C844        C  0.39733057  0.86352932  0.35790945     0.75100
O845        O  0.46750205  0.82862011  0.38471523    -0.58300
O846        O  0.41101264  0.88727198  0.35932005    -0.48400
O847        O  0.44904011  0.86634214  0.40025073    -0.54800
C848        C  0.49475517  0.90624044  0.36797505     0.85300
O849        O  0.45510168  0.87682184  0.32226789    -0.56700
O850        O  0.41297998  0.84117759  0.35803583    -0.60000
In851      In  0.07999484  0.98284244  0.10174148     1.36900
C852        C  0.06510175  0.98982170  0.14711996     0.77700
O853        O  0.05960174  0.93867022  0.10133812    -0.60700
O854        O  0.10550473  0.94124741  0.10019743    -0.51600
C855        C  0.05486406  0.49775552  0.06139827     0.70400
O856        O  0.04296375  0.50025995  0.08160737    -0.46500
C857        C  0.12052020  0.52473858  0.10120809     0.75100
O858        O  0.04726920  0.99371000  0.13026199    -0.58300
O859        O  0.12688393  0.49850021  0.09758815    -0.48400
O860        O  0.08987774  0.98205041  0.14036861    -0.54800
C861        C  0.08332175  0.92526333  0.10128531     0.85300
O862        O  0.07868093  0.98658160  0.06204527    -0.56700
O863        O  0.09400458  0.52960985  0.10443762    -0.60000
In864      In  0.46347738  0.60776109  0.86767384     1.36900
C865        C  0.46368251  0.59054959  0.82274766     0.77700
O866        O  0.42051356  0.58632178  0.87141468    -0.60700
O867        O  0.42185448  0.63246795  0.86952933    -0.51600
C868        C  0.47897182  0.58350864  0.90831313     0.70400
O869        O  0.47936303  0.56990041  0.88869253    -0.46500
C870        C  0.50488587  0.64738323  0.86558993     0.75100
O871        O  0.47468269  0.57532186  0.83920580    -0.58300
O872        O  0.47918053  0.65356283  0.87132951    -0.48400
O873        O  0.45353845  0.61453802  0.82931319    -0.54800
C874        C  0.40659163  0.60971898  0.87033640     0.85300
O875        O  0.46893133  0.60882811  0.90720780    -0.56700
O876        O  0.01028753  0.62150330  0.86246273    -0.60000
In877      In  0.31836590  0.60906079  0.86318157     1.36900
C878        C  0.31594674  0.58639126  0.81973905     0.77700
O879        O  0.27272076  0.62182586  0.85572602    -0.60700
O880        O  0.30425143  0.65523285  0.86079107    -0.51600
C881        C  0.30164106  0.59324934  0.90654984     0.70400
O882        O  0.30096972  0.57603594  0.88897642    -0.46500
C883        C  0.37507213  0.61000109  0.86871140     0.75100
O884        O  0.30835276  0.57232807  0.83817065    -0.58300
O885        O  0.36064309  0.63294331  0.86594861    -0.48400
O886        O  0.32498576  0.61166613  0.82395831    -0.54800
C887        C  0.27809668  0.64859012  0.85672602     0.85300
O888        O  0.31203657  0.61786361  0.90178631    -0.56700
O889        O  0.36045441  0.58690323  0.86892072    -0.60000
In890      In  0.18291275  0.58721950  0.11091960     1.36900
C891        C  0.21212570  0.58467324  0.07007432     0.77700
O892        O  0.16910703  0.54205457  0.10211008    -0.60700
O893        O  0.13629889  0.57392054  0.10641085    -0.51600
C894        C  0.19438216  0.56732099  0.15410071     0.70400
O895        O  0.21339605  0.56789966  0.13786175    -0.46500
C896        C  0.18247368  0.64417571  0.11852814     0.75100
O897        O  0.22240602  0.57574467  0.08967560    -0.58300
O898        O  0.16008107  0.63050431  0.11192437    -0.48400
O899        O  0.18692836  0.59500535  0.07169495    -0.54800
C900        C  0.14245657  0.54759540  0.10287750     0.85300
O901        O  0.17039006  0.57814363  0.14836375    -0.56700
O902        O  0.20461254  0.62872051  0.12143736    -0.60000
In903      In  0.20518569  0.96166051  0.36292858     1.36900
C904        C  0.21103091  0.98625435  0.32067675     0.77700
O905        O  0.25106257  0.94729794  0.35837586    -0.60700
O906        O  0.21812704  0.91493758  0.35894841    -0.51600
C907        C  0.21980462  0.97740606  0.40679455     0.70400
O908        O  0.22715310  0.99212229  0.38871724    -0.46500
C909        C  0.14768084  0.96230239  0.36636519     0.75100
O910        O  0.21425802  0.50078370  0.33869387    -0.58300
O911        O  0.16187457  0.93893475  0.36651883    -0.48400
O912        O  0.20242547  0.96047966  0.32335218    -0.54800
C913        C  0.24484823  0.92076013  0.35742290     0.85300
O914        O  0.20466188  0.95533986  0.40227464    -0.56700
O915        O  0.16284830  0.98492387  0.36424042    -0.60000
In916      In  0.33643316  0.98538492  0.61114940     1.36900
C917        C  0.30676186  0.98473676  0.57069127     0.77700
O918        O  0.34778725  0.53030746  0.60348200    -0.60700
O919        O  0.38222537  0.99899114  0.60377135    -0.51600
C920        C  0.32745615  0.00284964  0.65548704     0.70400
O921        O  0.30808968  0.00504376  0.63951822    -0.46500
C922        C  0.33700732  0.92881485  0.61862455     0.75100
O923        O  0.29646834  0.99534749  0.58972312    -0.58300
O924        O  0.35985207  0.94280696  0.61379881    -0.48400
O925        O  0.33234552  0.97546167  0.57234414    -0.54800
C926        C  0.37436442  0.52469254  0.60162794     0.85300
O927        O  0.35031858  0.99064281  0.64871061    -0.56700
O928        O  0.31430518  0.94380721  0.61985717    -0.60000
C929        C  0.22345001  0.98078007  0.47436450    -0.22300
C930        C  0.25306541  0.98585627  0.47773716     0.09700
C931        C  0.27106783  0.99103123  0.45782321     0.10100
C932        C  0.25907193  0.99030013  0.43475308    -0.17200
C933        C  0.22962817  0.98399465  0.43126346    -0.27600
C934        C  0.21138002  0.98008639  0.45134546     0.18400
C935        C  0.26490579  0.98536791  0.50229579     0.12400
C936        C  0.30072513  0.49615641  0.45952166    -0.12000
H937        H  0.27058765  0.49328970  0.41802373     0.12700
C938        C  0.17910433  0.97568636  0.44923722    -0.22800
H939        H  0.20968833  0.97730365  0.48980848     0.08300
C940        C  0.26497683  0.01034630  0.51678542     0.04600
C941        C  0.27762615  0.00913380  0.53961689    -0.20100
C942        C  0.29052079  0.98360640  0.54800241    -0.12300
C943        C  0.28935789  0.95821344  0.53377687     0.13300
C944        C  0.27665406  0.95952413  0.51100704    -0.22800
C945        C  0.24938512  0.53758146  0.50699815    -0.05800
H946        H  0.27574802  0.52760306  0.54965198     0.14900
C947        C  0.30057670  0.92925624  0.54213519    -0.16000
H948        H  0.27603951  0.94027287  0.49987788     0.09200
H949        H  0.16783133  0.99208642  0.46032872     0.07000
H950        H  0.17322139  0.95376134  0.45582147     0.08200
H951        H  0.17093463  0.97822895  0.43070466     0.07300
H952        H  0.31328190  0.97757613  0.46968872     0.02200
H953        H  0.30428328  0.51554892  0.47090392     0.02700
H954        H  0.31160154  0.49989525  0.44207340     0.06200
H955        H  0.25110571  0.55497190  0.52066158     0.05100
H956        H  0.22611376  0.53420497  0.50279708    -0.00600
H957        H  0.26078570  0.54498356  0.49061167     0.00800
H958        H  0.28288895  0.91292715  0.54115702     0.04500
H959        H  0.30843834  0.92946867  0.56086808     0.06400
H960        H  0.31851942  0.92218276  0.53033008     0.07300
C961        C  0.18333539  0.52942001  0.21352827    -0.22300
C962        C  0.21000125  0.53473214  0.22462563     0.09700
C963        C  0.23209187  0.54945881  0.21217044     0.10100
C964        C  0.22671994  0.55920417  0.18880601    -0.17200
C965        C  0.19956933  0.55499365  0.17800853    -0.27600
C966        C  0.17770508  0.53946528  0.19036605     0.18400
C967        C  0.21384018  0.52468645  0.24945521     0.12400
C968        C  0.26097994  0.55535416  0.22373825    -0.12000
H969        H  0.24345404  0.57091057  0.17921509     0.12700
C970        C  0.14866675  0.53276473  0.17917172    -0.22800
H971        H  0.16671419  0.51766188  0.22324683     0.08300
C972        C  0.20269025  0.54058186  0.26888165     0.04600
C973        C  0.20332599  0.52837669  0.29185237    -0.20100
C974        C  0.21488956  0.50070698  0.29565875    -0.12300
C975        C  0.22278378  0.98313559  0.27656424     0.13300
C976        C  0.22687501  0.49782871  0.25341571    -0.22800
C977        C  0.18969154  0.57012579  0.26522358    -0.05800
H978        H  0.19366064  0.53993600  0.30669113     0.14900
C979        C  0.23531386  0.95307632  0.27815417    -0.16000
H980        H  0.22575329  0.98274735  0.23812004     0.09200
H981        H  0.13646261  0.55304454  0.17601618     0.07000
H982        H  0.13516917  0.51885647  0.19095811     0.08200
H983        H  0.15173322  0.52113946  0.16196582     0.07300
H984        H  0.27146537  0.53459213  0.22863436     0.02200
H985        H  0.25791184  0.56855493  0.24013901     0.02700
H986        H  0.27575129  0.56734855  0.21156345     0.06200
H987        H  0.18224367  0.57971928  0.28235509     0.05100
H988        H  0.17079607  0.56860390  0.25297698    -0.00600
H989        H  0.20611898  0.58488825  0.25731167     0.00800
H990        H  0.22007112  0.93725535  0.26998677     0.04500
H991        H  0.24038244  0.94628238  0.29668445     0.06400
H992        H  0.25608166  0.95242005  0.26818148     0.07300
C993        C  0.25850741  0.56352120  0.95960349    -0.22300
C994        C  0.26904935  0.58142038  0.97789696     0.09700
C995        C  0.29179637  0.60091637  0.97314734     0.10100
C996        C  0.30269783  0.60292141  0.94985592    -0.17200
C997        C  0.29114325  0.58628227  0.93096084    -0.27600
C998        C  0.26879749  0.56589488  0.93604548     0.18400
C999        C  0.25417750  0.58143292  0.00130696     0.12400
C1000       C  0.30379484  0.62040462  0.99244873    -0.12000
H1001       H  0.31992742  0.61835251  0.94626175     0.12700
C1002       C  0.25366740  0.54732380  0.91757947    -0.22800
H1003       H  0.24097369  0.54858125  0.96352783     0.08300
C1004       C  0.22724567  0.59523531  0.00413060     0.04600
C1005       C  0.21417526  0.59555591  0.02670466    -0.20100
C1006       C  0.22773062  0.58326940  0.04683699    -0.12300
C1007       C  0.25536053  0.57029163  0.04404214     0.13300
C1008       C  0.26789655  0.56908233  0.02117091    -0.22800
C1009       C  0.21268792  0.61043692  0.98349106    -0.05800
H1010       H  0.19331717  0.60596831  0.02863394     0.14900
C1011       C  0.27214875  0.55812835  0.06486934    -0.16000
H1012       H  0.28884625  0.55897310  0.01878486     0.09200
H1013       H  0.22998928  0.55125532  0.91846464     0.07000
H1014       H  0.25769083  0.52414293  0.92161851     0.08200
H1015       H  0.26001631  0.55137849  0.89891894     0.07300
H1016       H  0.31332444  0.60715240  0.00701449     0.02200
H1017       H  0.28623553  0.63405066  0.99987693     0.02700
H1018       H  0.32100332  0.63500030  0.98550313     0.06200
H1019       H  0.19210005  0.62081565  0.98899867     0.05100
H1020       H  0.20763135  0.59471017  0.96905422    -0.00600
H1021       H  0.22721574  0.62759807  0.97636724     0.00800
H1022       H  0.29342419  0.54934894  0.05921547     0.04500
H1023       H  0.25978537  0.54019645  0.07330631     0.06400
H1024       H  0.27642753  0.57547724  0.07818989     0.07300
C1025       C  0.34368263  0.52825770  0.71721540    -0.22300
C1026       C  0.31605381  0.53515826  0.72550846     0.09700
C1027       C  0.29143035  0.02707975  0.71278550     0.10100
C1028       C  0.29592341  0.01649918  0.68955106    -0.17200
C1029       C  0.32397725  0.01399201  0.68010789    -0.27600
C1030       C  0.34779988  0.51677542  0.69428540     0.18400
C1031       C  0.31360801  0.54806000  0.74956869     0.12400
C1032       C  0.26116210  0.02910310  0.72258327    -0.12000
H1033       H  0.27747402  0.00989833  0.67881189     0.12700
C1034       C  0.37841031  0.51080151  0.68633181    -0.22800
H1035       H  0.36218273  0.53217172  0.72878119     0.08300
C1036       C  0.31120416  0.53069548  0.77018773     0.04600
C1037       C  0.31154220  0.54390341  0.79277485    -0.20100
C1038       C  0.31463386  0.57405187  0.79524140    -0.12300
C1039       C  0.31658657  0.59146710  0.77431729     0.13300
C1040       C  0.31603478  0.57811165  0.75178860    -0.22800
C1041       C  0.30875247  0.49824022  0.76828991    -0.05800
H1042       H  0.30997646  0.53043504  0.80865501     0.14900
C1043       C  0.31904845  0.62403282  0.77530669    -0.16000
H1044       H  0.31802359  0.59114813  0.73568281     0.09200
H1045       H  0.38126010  0.48729181  0.68302294     0.07000
H1046       H  0.39449811  0.51726077  0.70013387     0.08200
H1047       H  0.38337400  0.52329427  0.66984565     0.07300
H1048       H  0.25624208  0.05192617  0.72722999     0.02200
H1049       H  0.25919204  0.01552257  0.73889395     0.02700
H1050       H  0.24478190  0.02151700  0.70939580     0.06200
H1051       H  0.30706610  0.48786806  0.78617413     0.05100
H1052       H  0.32816440  0.48944923  0.75918876    -0.00600
H1053       H  0.29901262  0.98856722  0.75981043     0.00800
H1054       H  0.33968248  0.63043234  0.78407432     0.04500
H1055       H  0.30041308  0.63314733  0.78527333     0.06400
H1056       H  0.31899711  0.63384830  0.75714818     0.07300
C1057       C  0.01571649  0.57397645  0.96894033    -0.22300
C1058       C  0.00995909  0.54466959  0.97318282     0.09700
C1059       C  0.99441880  0.52827619  0.95617329     0.10100
C1060       C  0.48305004  0.54155197  0.93533963    -0.17200
C1061       C  0.48963867  0.57072566  0.93074830    -0.27600
C1062       C  0.00691350  0.58734999  0.94767653     0.18400
C1063       C  0.02123433  0.53150252  0.99533697     0.12400
C1064       C  0.98822127  0.49660210  0.96016474    -0.12000
H1065       H  0.47023915  0.52939129  0.92249427     0.12700
C1066       C  0.01682421  0.61816740  0.94367621    -0.22800
H1067       H  0.02804356  0.58627037  0.98204035     0.08300
C1068       C  0.05056838  0.52374163  0.99747696     0.04600
C1069       C  0.06051121  0.51211717  0.01908451    -0.20100
C1070       C  0.04197015  0.50857324  0.03881764    -0.12300
C1071       C  0.01244113  0.51650156  0.03656752     0.13300
C1072       C  0.00246723  0.52766156  0.01470821    -0.22800
C1073       C  0.07138562  0.52781349  0.97699398    -0.05800
H1074       H  0.08316673  0.50638979  0.02068452     0.14900
C1075       C  0.99123273  0.51336306  0.05687380    -0.16000
H1076       H  0.47947907  0.53493785  0.01291050     0.09200
H1077       H  0.04061391  0.61958049  0.94642902     0.07000
H1078       H  0.50739683  0.63181709  0.95687388     0.08200
H1079       H  0.51220410  0.62575754  0.92527806     0.07300
H1080       H  0.47271309  0.49423495  0.97727092     0.02200
H1081       H  0.00889570  0.48464865  0.96213903     0.02700
H1082       H  0.47310872  0.98716765  0.94526389     0.06200
H1083       H  0.09350013  0.52026653  0.98163408     0.05100
H1084       H  0.07286629  0.55109576  0.97220385    -0.00600
H1085       H  0.06373950  0.51532693  0.96120726     0.00800
H1086       H  0.49814298  0.52993815  0.07195095     0.04500
H1087       H  0.99051881  0.49049674  0.06297972     0.06400
H1088       H  0.46875916  0.52235978  0.05196365     0.07300
C1089       C  0.43172032  0.78965340  0.50739117    -0.22300
C1090       C  0.45943496  0.78916719  0.49738633     0.09700
C1091       C  0.48300150  0.77891718  0.51102289     0.10100
C1092       C  0.47789306  0.76781291  0.53407092    -0.17200
C1093       C  0.44992497  0.76766836  0.54392269    -0.27600
C1094       C  0.42674060  0.77996479  0.53073401     0.18400
C1095       C  0.46307663  0.80186094  0.47329748     0.12400
C1096       C  0.01382757  0.77749795  0.50048948    -0.12000
H1097       H  0.49576461  0.75913216  0.54440137     0.12700
C1098       C  0.39688655  0.78498587  0.54090659    -0.22800
H1099       H  0.41394064  0.79873934  0.49714021     0.08300
C1100       C  0.46252028  0.78468647  0.45243745     0.04600
C1101       C  0.46267705  0.79824558  0.42992402    -0.20100
C1102       C  0.46210267  0.82858582  0.42786178    -0.12300
C1103       C  0.46284261  0.84572425  0.44896866     0.13300
C1104       C  0.46361849  0.83205385  0.47136563    -0.22800
C1105       C  0.46033482  0.75216897  0.45391001    -0.05800
H1106       H  0.46193497  0.78508597  0.41391238     0.14900
C1107       C  0.46279470  0.87838800  0.44830910    -0.16000
H1108       H  0.46363580  0.84494524  0.48755162     0.09200
H1109       H  0.38094134  0.77086606  0.53160306     0.07000
H1110       H  0.39065685  0.80793078  0.53799434     0.08200
H1111       H  0.39541907  0.78134693  0.56042724     0.07300
H1112       H  0.02022383  0.80015749  0.49639164     0.02200
H1113       H  0.01501284  0.76449035  0.48386675     0.02700
H1114       H  0.02973934  0.76854410  0.51342397     0.06200
H1115       H  0.45972913  0.74207605  0.43587591     0.05100
H1116       H  0.44021076  0.74595505  0.46349133    -0.00600
H1117       H  0.47920949  0.74325997  0.46367356     0.00800
H1118       H  0.44199679  0.88630384  0.44085193     0.04500
H1119       H  0.48112749  0.88635654  0.43726117     0.06400
H1120       H  0.46515227  0.88790945  0.46646833     0.07300
C1121       C  0.00081157  0.76662094  0.70674187    -0.22300
C1122       C  0.99798297  0.74322771  0.72252766     0.09700
C1123       C  0.48352855  0.71975113  0.71526389     0.10100
C1124       C  0.47088764  0.71887360  0.69247173    -0.17200
C1125       C  0.47305644  0.74243353  0.67674610    -0.27600
C1126       C  0.98774154  0.76603289  0.68402869     0.18400
C1127       C  0.01276967  0.74426466  0.74601758     0.12400
C1128       C  0.48083307  0.69383190  0.73152340    -0.12000
H1129       H  0.45940319  0.69957809  0.68678638     0.12700
C1130       C  0.98981274  0.79307745  0.66898257    -0.22800
H1131       H  0.01301177  0.78556632  0.71229642     0.08300
C1132       C  0.04129948  0.73410738  0.74866282     0.04600
C1133       C  0.05306626  0.73130761  0.77167916    -0.20100
C1134       C  0.03687512  0.73816744  0.79214442    -0.12300
C1135       C  0.00855643  0.74954056  0.78937929     0.13300
C1136       C  0.99706577  0.75273409  0.76623854    -0.22800
C1137       C  0.05884735  0.72511666  0.72723554    -0.05800
H1138       H  0.07469465  0.72262836  0.77377493     0.14900
C1139       C  0.98882366  0.75656636  0.81004462    -0.16000
H1140       H  0.47449774  0.75953656  0.76415849     0.09200
H1141       H  0.01279095  0.79731802  0.66432396     0.07000
H1142       H  0.98146266  0.81175437  0.67937589     0.08200
H1143       H  0.97697150  0.79201938  0.65227442     0.07300
H1144       H  0.46943277  0.70006459  0.74820661     0.02200
H1145       H  0.50267070  0.68553552  0.73611513     0.02700
H1146       H  0.46839125  0.67598373  0.72296798     0.06200
H1147       H  0.08074634  0.71751641  0.73246403     0.05100
H1148       H  0.06145024  0.74378580  0.71489756    -0.00600
H1149       H  0.04768327  0.70719273  0.71765873     0.00800
H1150       H  0.98284828  0.77981408  0.80929279     0.04500
H1151       H  0.99831245  0.75220544  0.82781741     0.06400
H1152       H  0.46836955  0.74011790  0.80819809     0.07300
C1153       C  0.07045192  0.81313107  0.99838863    -0.22300
C1154       C  0.06460076  0.78357088  0.99549368     0.09700
C1155       C  0.05906034  0.76621312  0.01575912     0.10100
C1156       C  0.06035010  0.77873480  0.03866002    -0.17200
C1157       C  0.06723126  0.80815762  0.04165637    -0.27600
C1158       C  0.07153715  0.82576609  0.02119250     0.18400
C1159       C  0.06531989  0.77117469  0.97106808     0.12400
C1160       C  0.05215730  0.73446889  0.01316743    -0.12000
H1161       H  0.05709972  0.76526425  0.05432057     0.12700
C1162       C  0.07661960  0.85800505  0.02258486    -0.22800
H1163       H  0.07426874  0.82643386  0.98270687     0.08300
C1164       C  0.04142392  0.77327002  0.95543516     0.04600
C1165       C  0.04350725  0.76176645  0.93225298    -0.20100
C1166       C  0.06892657  0.74818891  0.92441592    -0.12300
C1167       C  0.09317277  0.74677080  0.93996451     0.10100
C1168       C  0.09085993  0.75799506  0.96320988    -0.22800
C1169       C  0.01367526  0.78730411  0.96335384    -0.05800
H1170       H  0.02499124  0.76285484  0.92033577     0.14900
C1171       C  0.12217061  0.73483874  0.93252184    -0.16000
H1172       H  0.10933164  0.75696337  0.97518916     0.09200
H1173       H  0.06015659  0.86929153  0.01152007     0.07000
H1174       H  0.09846203  0.86327157  0.01551820     0.08200
H1175       H  0.07477493  0.86677306  0.04095989     0.07300
H1176       H  0.07046692  0.72320951  0.00437533     0.02200
H1177       H  0.03234632  0.73169595  0.00210239     0.02700
H1178       H  0.04832179  0.72403317  0.03079502     0.06200
H1179       H  0.49633366  0.78630014  0.94800487     0.05100
H1180       H  0.01781468  0.81028201  0.96813268    -0.00600
H1181       H  0.00493430  0.77573868  0.97920963     0.00800
H1182       H  0.13924211  0.75141181  0.93572262     0.04500
H1183       H  0.12331354  0.72902964  0.91333555     0.06400
H1184       H  0.12724428  0.71536655  0.94337211     0.07300
C1185       C  0.04424966  0.84537629  0.21946768    -0.22300
C1186       C  0.01494063  0.83763832  0.22032644     0.09700
C1187       C  0.50067746  0.83059848  0.19964648     0.10100
C1188       C  0.01600218  0.82834123  0.17756421    -0.17200
C1189       C  0.04539874  0.83641886  0.17640904    -0.27600
C1190       C  0.05979310  0.84476512  0.19788434     0.18400
C1191       C  0.50066026  0.84104019  0.24407300     0.12400
C1192       C  0.46903685  0.82268018  0.20032609    -0.12000
H1193       H  0.50415006  0.82325213  0.16178560     0.12700
C1194       C  0.09141044  0.85304706  0.19855519    -0.22800
H1195       H  0.05495053  0.85202400  0.23584692     0.08300
C1196       C  0.00290549  0.81787380  0.26123401     0.04600
C1197       C  0.49213491  0.82397854  0.28461633    -0.20100
C1198       C  0.47698686  0.84944936  0.29024715    -0.12300
C1199       C  0.47227750  0.87025022  0.27183251     0.13300
C1200       C  0.48443375  0.86578484  0.24911046    -0.22800
C1201       C  0.01892298  0.79029898  0.25586379    -0.05800
H1202       H  0.49537924  0.80768362  0.29830329     0.14900
C1203       C  0.45485279  0.89740228  0.27571395    -0.16000
H1204       H  0.48183123  0.88202258  0.23524818     0.09200
H1205       H  0.09878473  0.85845946  0.21696241     0.07000
H1206       H  0.09523270  0.87243484  0.18723233     0.08200
H1207       H  0.10478677  0.83469303  0.19215824     0.07300
H1208       H  0.45619985  0.84153270  0.20645178     0.02200
H1209       H  0.46562751  0.80432118  0.21285286     0.02700
H1210       H  0.46085107  0.81610844  0.18241993     0.06200
H1211       H  0.01900627  0.77538001  0.27145227     0.05100
H1212       H  0.04172687  0.79529917  0.25113897    -0.00600
H1213       H  0.00837532  0.77897426  0.24061226     0.00800
H1214       H  0.46551163  0.91135820  0.28931111     0.04500
H1215       H  0.43261085  0.89161035  0.28157073     0.06400
H1216       H  0.45286892  0.91041054  0.25906938     0.07300
C1217       C  0.02665637  0.50348966  0.20582700    -0.22300
C1218       C  0.04925531  0.99639863  0.22261530     0.09700
C1219       C  0.07721845  0.99101164  0.21376388     0.10100
C1220       C  0.08148249  0.98976451  0.18908504    -0.17200
C1221       C  0.05848897  0.99366705  0.17287969    -0.27600
C1222       C  0.03136529  0.50162769  0.18105012     0.18400
C1223       C  0.04349424  0.99385079  0.24840827     0.12400
C1224       C  0.10247590  0.98576396  0.23037472    -0.12000
H1225       H  0.10300705  0.98510069  0.18249014     0.12700
C1226       C  0.00750627  0.51093126  0.16435418    -0.22800
H1227       H  0.00601231  0.51095383  0.21259218     0.08300
C1228       C  0.04819858  0.01715611  0.26420634     0.04600
C1229       C  0.04856283  0.01184765  0.28890966    -0.20100
C1230       C  0.04459497  0.98372393  0.29791753    -0.12300
C1231       C  0.03743610  0.96085803  0.28196908     0.13300
C1232       C  0.03699822  0.96634228  0.25736888    -0.22800
C1233       C  0.05356163  0.04729408  0.25488895    -0.05800
H1234       H  0.05336027  0.02949259  0.30115012     0.14900
C1235       C  0.03030483  0.93064204  0.29051989    -0.16000
H1236       H  0.03303590  0.94870902  0.24490391     0.09200
H1237       H  0.98831966  0.51895380  0.17426648     0.07000
H1238       H  0.00033389  0.49230763  0.15324087     0.08200
H1239       H  0.01530932  0.52877500  0.15268298     0.07300
H1240       H  0.09810244  0.96651335  0.24172131     0.02200
H1241       H  0.10595872  0.00492557  0.24202511     0.02700
H1242       H  0.12285078  0.98181190  0.22038767     0.06200
H1243       H  0.05659383  0.06309080  0.26968565     0.05100
H1244       H  0.04329492  0.55603271  0.24115786    -0.00600
H1245       H  0.07329759  0.04768403  0.24360180     0.00800
H1246       H  0.52648146  0.91650242  0.27520858     0.04500
H1247       H  0.01273702  0.93148846  0.30403627     0.06400
H1248       H  0.04976268  0.92031225  0.29837039     0.07300
C1249       C  0.47135556  0.60084152  0.70990114    -0.22300
C1250       C  0.46637846  0.57432207  0.72134404     0.09700
C1251       C  0.45967443  0.54947996  0.70771564     0.10100
C1252       C  0.45704909  0.55200241  0.68276222    -0.17200
C1253       C  0.46092591  0.57883008  0.67143914    -0.27600
C1254       C  0.46868943  0.60343830  0.68505654     0.18400
C1255       C  0.46559831  0.57408805  0.74772300     0.12400
C1256       C  0.45464795  0.52063598  0.71959002    -0.12000
H1257       H  0.45071937  0.53332839  0.67219101     0.12700
C1258       C  0.47354951  0.63285653  0.67404060    -0.22800
H1259       H  0.47648606  0.61983643  0.72053310     0.08300
C1260       C  0.49098240  0.57130611  0.76155638     0.04600
C1261       C  0.48937695  0.57479881  0.78646214    -0.20100
C1262       C  0.46308332  0.58171059  0.79753715    -0.12300
C1263       C  0.43742315  0.58334786  0.78371478     0.13300
C1264       C  0.43907575  0.57949884  0.75891947    -0.22800
C1265       C  0.51977669  0.56561799  0.74993233    -0.05800
H1266       H  0.50895473  0.57372280  0.79715828     0.14900
C1267       C  0.40799645  0.58904331  0.79441970    -0.16000
H1268       H  0.41963197  0.58148018  0.74812623     0.09200
H1269       H  0.00455108  0.63613388  0.67663742     0.07000
H1270       H  0.45717594  0.64813783  0.68106967     0.08200
H1271       H  0.47194109  0.63271143  0.65424598     0.07300
H1272       H  0.43623744  0.52219291  0.73226123     0.02200
H1273       H  0.47437587  0.51411179  0.72956198     0.02700
H1274       H  0.44955116  0.50344590  0.70631293     0.06200
H1275       H  0.03999504  0.56474246  0.76396694     0.05100
H1276       H  0.02825346  0.58362755  0.73756179    -0.00600
H1277       H  0.51885190  0.54486743  0.73993698     0.00800
H1278       H  0.39940591  0.60982008  0.78742768     0.04500
H1279       H  0.40826072  0.59003577  0.81422846     0.06400
H1280       H  0.39286853  0.57133419  0.78928486     0.07300
C1281       C  0.47743071  0.56312344  0.49393304    -0.22300
C1282       C  0.50594081  0.55311227  0.49509825     0.09700
C1283       C  0.02206307  0.55614753  0.51637482     0.10100
C1284       C  0.50696770  0.56438695  0.53753040    -0.17200
C1285       C  0.47775426  0.57299575  0.53683807    -0.27600
C1286       C  0.46307917  0.57314093  0.51444957     0.18400
C1287       C  0.51826461  0.53890523  0.47367055     0.12400
C1288       C  0.05432219  0.55148021  0.51700153    -0.12000
H1289       H  0.01982692  0.56760552  0.55363058     0.12700
C1290       C  0.43218149  0.58306618  0.51182059    -0.22800
H1291       H  0.46606623  0.56212957  0.47698329     0.08300
C1292       C  0.01545597  0.00867949  0.47004457     0.04600
C1293       C  0.02550884  0.99579247  0.44897478    -0.20100
C1294       C  0.04005955  0.01198726  0.43143517    -0.12300
C1295       C  0.03582381  0.54395151  0.43244474     0.13300
C1296       C  0.02659734  0.55609094  0.45422147    -0.22800
C1297       C  0.50076239  0.99150852  0.48764381    -0.05800
H1298       H  0.02111339  0.97303414  0.44581762     0.14900
C1299       C  0.04267957  0.56397224  0.41190907    -0.16000
H1300       H  0.02443995  0.57933697  0.45591031     0.09200
H1301       H  0.42467453  0.58203772  0.49293957     0.07000
H1302       H  0.43027108  0.60590531  0.51780178     0.08200
H1303       H  0.41761567  0.56896677  0.52252207     0.07300
H1304       H  0.06493549  0.56612329  0.50389473     0.02200
H1305       H  0.05956724  0.52876616  0.51236571     0.02700
H1306       H  0.06353559  0.55612766  0.53498380     0.06200
H1307       H  0.49893670  0.96860574  0.48174109     0.05100
H1308       H  0.47852754  0.00015395  0.48979463    -0.00600
H1309       H  0.00993954  0.99071311  0.50535990     0.00800
H1310       H  0.02730826  0.56008612  0.39694719     0.04500
H1311       H  0.06520609  0.56034599  0.40574192     0.06400
H1312       H  0.04072966  0.58708912  0.41713923     0.07300
C1313       C  0.26166789  0.77848378  0.26961200    -0.22300
C1314       C  0.26468795  0.79473740  0.24860487     0.09700
C1315       C  0.27818607  0.82212542  0.24953346     0.10100
C1316       C  0.28820441  0.83278624  0.27156642    -0.17200
C1317       C  0.28483058  0.81690429  0.29289869    -0.27600
C1318       C  0.27149369  0.78913625  0.29178995     0.18400
C1319       C  0.25205517  0.78333875  0.22606280     0.12400
C1320       C  0.28156659  0.84033594  0.22732867    -0.12000
H1321       H  0.29830274  0.85399685  0.27210967     0.12700
C1322       C  0.26700821  0.77063242  0.31370669    -0.22800
H1323       H  0.25110754  0.75751531  0.26864758     0.08300
C1324       C  0.26830571  0.76644235  0.20996044     0.04600
C1325       C  0.25523311  0.75648574  0.18872102    -0.20100
C1326       C  0.22609168  0.76252001  0.18355987    -0.12300
C1327       C  0.20994749  0.77979423  0.19969373     0.13300
C1328       C  0.22313117  0.78971807  0.22081171    -0.22800
C1329       C  0.29921171  0.75854420  0.21544895    -0.05800
H1330       H  0.26759983  0.74337489  0.17635698     0.14900
C1331       C  0.17921667  0.78928137  0.19499782    -0.16000
H1332       H  0.21085027  0.80293340  0.23317189     0.09200
H1333       H  0.25642930  0.74965653  0.30927487     0.07000
H1334       H  0.25283537  0.78202630  0.32663907     0.08200
H1335       H  0.28820831  0.76574840  0.32215081     0.07300
H1336       H  0.25995655  0.84498956  0.21953627     0.02200
H1337       H  0.29479416  0.82862792  0.21392908     0.02700
H1338       H  0.29242289  0.86132462  0.23122929     0.06200
H1339       H  0.30878211  0.74503997  0.20107264     0.05100
H1340       H  0.30012671  0.74609622  0.23243569    -0.00600
H1341       H  0.31256169  0.77844509  0.21732778     0.00800
H1342       H  0.16466935  0.77970124  0.20869776     0.04500
H1343       H  0.17103868  0.78330294  0.17704330     0.06400
H1344       H  0.17795140  0.81324597  0.19621478     0.07300
C1345       C  0.27889597  0.81949258  0.51810682    -0.22300
C1346       C  0.29983142  0.82969049  0.50208321     0.09700
C1347       C  0.32592379  0.84163882  0.51068692     0.10100
C1348       C  0.33073695  0.84277181  0.53530281    -0.17200
C1349       C  0.31000905  0.83248661  0.55166444    -0.27600
C1350       C  0.28362360  0.82069474  0.54293408     0.18400
C1351       C  0.29379153  0.82938357  0.47625546     0.12400
C1352       C  0.34854764  0.85368401  0.49390972    -0.12000
H1353       H  0.35086663  0.85205255  0.54173364     0.12700
C1354       C  0.26045122  0.80924476  0.55938734    -0.22800
H1355       H  0.25880110  0.81070308  0.51111410     0.08300
C1356       C  0.30535407  0.80783918  0.46122396     0.04600
C1357       C  0.30454853  0.81193981  0.43636694    -0.20100
C1358       C  0.29250627  0.83712833  0.42654819    -0.12300
C1359       C  0.27843254  0.85727230  0.44164602     0.13300
C1360       C  0.27958689  0.85326239  0.46641297    -0.22800
C1361       C  0.31935835  0.78115753  0.47149691    -0.05800
H1362       H  0.31491367  0.79637321  0.42470808     0.14900
C1363       C  0.26212285  0.88323034  0.43237057    -0.16000
H1364       H  0.27034218  0.86945074  0.47816941     0.09200
H1365       H  0.26927928  0.79140221  0.57050381     0.07000
H1366       H  0.24160731  0.80053370  0.54927650     0.08200
H1367       H  0.25244970  0.82691535  0.57107204     0.07300
H1368       H  0.33911061  0.87144211  0.48305153     0.02200
H1369       H  0.35644703  0.83643374  0.48178430     0.02700
H1370       H  0.36752741  0.86254830  0.50375144     0.06200
H1371       H  0.32741356  0.76655343  0.45721702     0.05100
H1372       H  0.30330379  0.76902097  0.48238633    -0.00600
H1373       H  0.33798217  0.78723770  0.48304933     0.00800
H1374       H  0.23982864  0.88304878  0.43977842     0.04500
H1375       H  0.25991341  0.88344133  0.41262755     0.06400
H1376       H  0.27319776  0.90343175  0.43819244     0.07300
C1377       C  0.23464141  0.74922674  0.96097000    -0.22300
C1378       C  0.21673013  0.73132665  0.97476804     0.09700
C1379       C  0.19843613  0.71095249  0.96363500     0.10100
C1380       C  0.19893863  0.70843527  0.93876139    -0.17200
C1381       C  0.21685011  0.72622219  0.92463723    -0.27600
C1382       C  0.23491763  0.74704399  0.93591055     0.18400
C1383       C  0.21612472  0.73523332  0.00085679     0.12400
C1384       C  0.17797174  0.69225503  0.97795491    -0.12000
H1385       H  0.18483996  0.69263436  0.93031153     0.12700
C1386       C  0.25472163  0.76673713  0.92193421    -0.22800
H1387       H  0.24829524  0.76503880  0.96989435     0.08300
C1388       C  0.23325914  0.71820812  0.01626543     0.04600
C1389       C  0.22983697  0.72114351  0.04108343    -0.20100
C1390       C  0.20929414  0.74027982  0.05051021    -0.12300
C1391       C  0.19294664  0.75807465  0.03495659     0.13300
C1392       C  0.19659555  0.75525256  0.01025851    -0.22800
C1393       C  0.25441178  0.69645545  0.00649051    -0.05800
H1394       H  0.24204589  0.70736979  0.05309994     0.14900
C1395       C  0.17155859  0.78029783  0.04369621    -0.16000
H1396       H  0.18364314  0.76830479  0.99819856     0.09200
H1397       H  0.27016422  0.75364285  0.91130294     0.07000
H1398       H  0.26754822  0.78115357  0.93386982     0.08200
H1399       H  0.24179019  0.78073910  0.90985500     0.07300
H1400       H  0.16250780  0.70617092  0.98782255     0.02200
H1401       H  0.19026620  0.67891679  0.99094955     0.02700
H1402       H  0.16526448  0.67736807  0.96633424     0.06200
H1403       H  0.26599848  0.68488088  0.02103975     0.05100
H1404       H  0.27072233  0.70766736  0.99520179    -0.00600
H1405       H  0.24285933  0.68007824  0.99546538     0.00800
H1406       H  0.17725964  0.80182136  0.03615266     0.04500
H1407       H  0.17137522  0.78264486  0.06342345     0.06400
H1408       H  0.14942941  0.77431240  0.03759940     0.07300
C1409       C  0.26564138  0.75301666  0.75343913    -0.22300
C1410       C  0.26142369  0.78291136  0.75164154     0.09700
C1411       C  0.24676012  0.79783587  0.76991179     0.10100
C1412       C  0.23670896  0.78235609  0.78985592    -0.17200
C1413       C  0.24073827  0.75228713  0.79170223    -0.27600
C1414       C  0.25557604  0.73742565  0.77325568     0.18400
C1415       C  0.27270076  0.79784803  0.73026259     0.12400
C1416       C  0.24202749  0.83002657  0.76840170    -0.12000
H1417       H  0.22548096  0.79376900  0.80401280     0.12700
C1418       C  0.26184776  0.70542657  0.77457836    -0.22800
H1419       H  0.27706782  0.74188776  0.73922935     0.08300
C1420       C  0.30237576  0.80430202  0.72795667     0.04600
C1421       C  0.31265921  0.81544977  0.70627194    -0.20100
C1422       C  0.29405714  0.81969401  0.68663017    -0.12300
C1423       C  0.26402069  0.81401458  0.68932232     0.13300
C1424       C  0.25376942  0.80332438  0.71124060    -0.22800
C1425       C  0.32322284  0.79897409  0.74825625    -0.05800
H1426       H  0.33561428  0.81982353  0.70442713     0.14900
C1427       C  0.24258686  0.81880671  0.66934507    -0.16000
H1428       H  0.23096550  0.79821760  0.71334309     0.09200
H1429       H  0.27516700  0.69802522  0.75923178     0.07000
H1430       H  0.24131225  0.69289237  0.77417682     0.08200
H1431       H  0.27398234  0.70049863  0.79125959     0.07300
H1432       H  0.22889137  0.83518692  0.75231076     0.02200
H1433       H  0.26322074  0.84135328  0.76716569     0.02700
H1434       H  0.23044391  0.83838001  0.78436075     0.06200
H1435       H  0.34564678  0.80558105  0.74354390     0.05100
H1436       H  0.32349859  0.77558877  0.75283005    -0.00600
H1437       H  0.31646097  0.81156765  0.76420536     0.00800
H1438       H  0.21999328  0.81461005  0.67522410     0.04500
H1439       H  0.24713239  0.80383804  0.65429270     0.06400
H1440       H  0.24385729  0.84159415  0.66308827     0.07300
In1441     In  0.71404120  0.20937698  0.85218212     1.36900
C1442       C  0.71561566  0.22107712  0.89832627     0.77700
O1443       O  0.67127323  0.23133550  0.84885927    -0.60700
O1444       O  0.67163318  0.18523473  0.84827675    -0.51600
C1445       C  0.73049783  0.23684065  0.81314559     0.70400
O1446       O  0.72951312  0.24928225  0.83329941    -0.46500
C1447       C  0.75555095  0.17019119  0.85393651     0.75100
O1448       O  0.72569147  0.23855607  0.88299255    -0.58300
O1449       O  0.72986893  0.16377907  0.84795690    -0.48400
O1450       O  0.70461176  0.19839629  0.88964218    -0.54800
C1451       C  0.65674973  0.20816074  0.84840437     0.85300
O1452       O  0.72188706  0.21086835  0.81309465    -0.56700
O1453       O  0.76004444  0.19661339  0.85821110    -0.60000
In1454     In  0.83273827  0.33886343  0.62149190     1.36900
C1455       C  0.81650726  0.33429795  0.57641934     0.77700
O1456       O  0.81203227  0.38228099  0.62210349    -0.60700
O1457       O  0.85809503  0.38071735  0.62164714    -0.51600
C1458       C  0.80703930  0.32655297  0.66241460     0.70400
O1459       O  0.79462306  0.32348757  0.64241844    -0.46500
C1460       C  0.87167712  0.29708323  0.62070111     0.75100
O1461       O  0.79942884  0.32853355  0.59342799    -0.58300
O1462       O  0.87837826  0.32322080  0.62471386    -0.48400
O1463       O  0.84152301  0.34194970  0.58290595    -0.54800
C1464       C  0.83555182  0.39610727  0.62101030     0.85300
O1465       O  0.83238433  0.33685029  0.66126358    -0.56700
O1466       O  0.84499889  0.29219582  0.61810016    -0.60000
In1467     In  0.80694271  0.35737242  0.35510733     1.36900
C1468       C  0.79732628  0.34352509  0.40028050     0.77700
O1469       O  0.85123905  0.33725960  0.35697164    -0.60700
O1470       O  0.84878110  0.38279142  0.35250754    -0.51600
C1471       C  0.79238646  0.33053247  0.31450957     0.70400
O1472       O  0.79112432  0.31839276  0.33472404    -0.46500
C1473       C  0.76659870  0.39808373  0.35485429     0.75100
O1474       O  0.79529359  0.32491552  0.38377014    -0.58300
O1475       O  0.79318340  0.40383141  0.35207997    -0.48400
O1476       O  0.80554688  0.36825281  0.39364286    -0.54800
C1477       C  0.86473911  0.36092371  0.35515760     0.85300
O1478       O  0.80232102  0.35603095  0.31520387    -0.56700
O1479       O  0.76063304  0.37153063  0.35673274    -0.60000
In1480     In  0.68541204  0.23225299  0.12072874     1.36900
C1481       C  0.70017627  0.23744834  0.07555174     0.77700
O1482       O  0.70587978  0.18844867  0.12203925    -0.60700
O1483       O  0.65992838  0.19028984  0.12142191    -0.51600
C1484       C  0.71068445  0.24928646  0.16081320     0.70400
O1485       O  0.72307225  0.25128082  0.14073528    -0.46500
C1486       C  0.64619448  0.27374349  0.11964258     0.75100
O1487       O  0.71883849  0.23890713  0.09208889    -0.58300
O1488       O  0.63959398  0.24758939  0.12382805    -0.48400
O1489       O  0.67457065  0.23298609  0.08226050    -0.54800
C1490       C  0.68230931  0.17468400  0.12095843     0.85300
O1491       O  0.68641470  0.23658556  0.16045975    -0.56700
O1492       O  0.67284415  0.27870834  0.11698601    -0.60000
In1493     In  0.93765293  0.08899578  0.60096011     1.36900
C1494       C  0.95298548  0.08241945  0.64612597     0.77700
O1495       O  0.95834822  0.13269693  0.60249738    -0.60700
O1496       O  0.91244751  0.13069721  0.59910796    -0.51600
C1497       C  0.96481625  0.07968404  0.55974152     0.70400
O1498       O  0.97735127  0.07802053  0.57982805    -0.46500
C1499       C  0.89798333  0.04737418  0.60044793     0.75100
O1500       O  0.96838838  0.07276731  0.62927837    -0.58300
O1501       O  0.89147727  0.07382429  0.59842236    -0.48400
O1502       O  0.93011413  0.09501141  0.63980856    -0.54800
C1503       C  0.93479368  0.14634348  0.60152412     0.85300
O1504       O  0.93852088  0.08679077  0.56100698    -0.56700
O1505       O  0.92468280  0.04226538  0.60195635    -0.60000
In1506     In  0.55836178  0.46803594  0.36934364     1.36900
C1507       C  0.54989990  0.47847278  0.32355567     0.77700
O1508       O  0.60243969  0.48773850  0.36508211    -0.60700
O1509       O  0.60013224  0.44276223  0.37290540    -0.51600
C1510       C  0.54759186  0.49781876  0.40901141     0.70400
O1511       O  0.54605776  0.50910765  0.38845287    -0.46500
C1512       C  0.51631453  0.42874796  0.36981853     0.75100
O1513       O  0.54473798  0.49749489  0.33927579    -0.58300
O1514       O  0.54257310  0.42220898  0.37323800    -0.48400
O1515       O  0.56009816  0.45520485  0.33155180    -0.54800
C1516       C  0.61596843  0.46437768  0.36814610     0.85300
O1517       O  0.55517945  0.47157251  0.40908069    -0.56700
O1518       O  0.51143343  0.45545998  0.36777861    -0.60000
In1519     In  0.58463968  0.33628855  0.10875599     1.36900
C1520       C  0.55881269  0.33654189  0.15135038     0.77700
O1521       O  0.59781341  0.29067057  0.11583288    -0.60700
O1522       O  0.63093288  0.32292100  0.11419563    -0.51600
C1523       C  0.57150856  0.31881614  0.06484332     0.70400
O1524       O  0.55585822  0.31248552  0.08267478    -0.46500
C1525       C  0.58420099  0.39323423  0.10236782     0.75100
O1526       O  0.54567490  0.32929193  0.13232379    -0.58300
O1527       O  0.60750806  0.37936756  0.10539691    -0.48400
O1528       O  0.58504338  0.34316155  0.14822523    -0.54800
C1529       C  0.62446425  0.29644233  0.11680178     0.85300
O1530       O  0.59336028  0.33423050  0.06959617    -0.56700
O1531       O  0.56152943  0.37789835  0.10210612    -0.60000
In1532     In  0.56796476  0.21072287  0.85605070     1.36900
C1533       C  0.56811033  0.23509321  0.89904921     0.77700
O1534       O  0.52267871  0.19648609  0.86464368    -0.60700
O1535       O  0.55398147  0.16402123  0.85750922    -0.51600
C1536       C  0.54889284  0.23001774  0.81414274     0.70400
O1537       O  0.54835012  0.24542075  0.83279811    -0.46500
C1538       C  0.62499735  0.20838005  0.84960163     0.75100
O1539       O  0.55741056  0.24738073  0.88089398    -0.58300
O1540       O  0.60981831  0.18581116  0.85236101    -0.48400
O1541       O  0.57832398  0.21025006  0.89518014    -0.54800
C1542       C  0.52797733  0.16992860  0.86237091     0.85300
O1543       O  0.56057144  0.20561842  0.81683433    -0.56700
O1544       O  0.61090901  0.23169925  0.84934535    -0.60000
In1545     In  0.93360553  0.23489668  0.61017220     1.36900
C1546       C  0.95876483  0.23889356  0.65265657     0.77700
O1547       O  0.92005648  0.28023531  0.61763651    -0.60700
O1548       O  0.88708527  0.24796589  0.61498214    -0.51600
C1549       C  0.94574277  0.25411995  0.56665813     0.70400
O1550       O  0.96365573  0.25650097  0.58371401    -0.46500
C1551       C  0.93385298  0.17794035  0.60395016     0.75100
O1552       O  0.97149062  0.24637667  0.63357943    -0.58300
O1553       O  0.91065854  0.19186203  0.60705981    -0.48400
O1554       O  0.93383037  0.22817360  0.64971492    -0.54800
C1555       C  0.89342158  0.27440230  0.61802697     0.85300
O1556       O  0.92312363  0.24005019  0.57162836    -0.56700
O1557       O  0.95660323  0.19315799  0.60385827    -0.60000
In1558     In  0.95389627  0.36524154  0.35966563     1.36900
C1559       C  0.95954246  0.34086110  0.40228927     0.77700
O1560       O  0.99956292  0.37977780  0.36549392    -0.60700
O1561       O  0.96660823  0.41194787  0.36466414    -0.51600
C1562       C  0.96845166  0.35389722  0.31454409     0.70400
O1563       O  0.97401800  0.33653740  0.33149593    -0.46500
C1564       C  0.89649789  0.36272958  0.35648750     0.75100
O1565       O  0.96627771  0.32766493  0.38320090    -0.58300
O1566       O  0.91013938  0.38650021  0.35765700    -0.48400
O1567       O  0.94963240  0.36598715  0.39914141    -0.54800
C1568       C  0.99329330  0.40627051  0.36668551     0.85300
O1569       O  0.95467322  0.37604164  0.32091141    -0.56700
O1570       O  0.91220847  0.34043290  0.35691502    -0.60000
In1571     In  0.57990418  0.48244438  0.10154164     1.36900
C1572       C  0.56513700  0.48856419  0.14696532     0.77700
O1573       O  0.55935459  0.43841852  0.10041363    -0.60700
O1574       O  0.60531037  0.44082286  0.09983617    -0.51600
C1575       C  0.55368669  0.99724426  0.06127803     0.70400
O1576       O  0.54165545  0.99952444  0.08145094    -0.46500
C1577       C  0.61996069  0.02360591  0.10088606     0.75100
O1578       O  0.54717230  0.49232034  0.13017940    -0.58300
O1579       O  0.62599543  0.99719314  0.09773769    -0.48400
O1580       O  0.59004308  0.48129639  0.14014454    -0.54800
C1581       C  0.58302866  0.42492429  0.10047472     0.85300
O1582       O  0.57867474  0.48602724  0.06190226    -0.56700
O1583       O  0.59347112  0.02895831  0.10363871    -0.60000
In1584     In  0.96413764  0.10884185  0.86790465     1.36900
C1585       C  0.96432639  0.09213378  0.82286594     0.77700
O1586       O  0.92132045  0.08694119  0.87126975    -0.60700
O1587       O  0.92225432  0.13312578  0.86991247    -0.51600
C1588       C  0.97949846  0.08473615  0.90863411     0.70400
O1589       O  0.98011754  0.07111689  0.88901510    -0.46500
C1590       C  0.00562800  0.14832875  0.86591513     0.75100
O1591       O  0.97548145  0.07676858  0.83917542    -0.58300
O1592       O  0.97990595  0.15462512  0.87154317    -0.48400
O1593       O  0.95417856  0.11604175  0.82963354    -0.54800
C1594       C  0.90717812  0.11022575  0.87041164     0.85300
O1595       O  0.96936510  0.11001801  0.90745648    -0.56700
O1596       O  0.51046256  0.12136300  0.86075145    -0.60000
In1597     In  0.81884040  0.10912528  0.86318131     1.36900
C1598       C  0.81666136  0.08658456  0.81980664     0.77700
O1599       O  0.77306224  0.12175980  0.85582075    -0.60700
O1600       O  0.80452450  0.15527560  0.86044796    -0.51600
C1601       C  0.80158136  0.09333598  0.90640565     0.70400
O1602       O  0.80028486  0.07636092  0.88869698    -0.46500
C1603       C  0.87562494  0.11026821  0.86872103     0.75100
O1604       O  0.80963851  0.07221496  0.83823025    -0.58300
O1605       O  0.86100951  0.13315953  0.86637837    -0.48400
O1606       O  0.82508499  0.11206804  0.82400820    -0.54800
C1607       C  0.77834719  0.14854861  0.85657555     0.85300
O1608       O  0.81314847  0.11748759  0.90185931    -0.56700
O1609       O  0.86115870  0.08706357  0.86849444    -0.60000
In1610     In  0.68212743  0.08614730  0.11091796     1.36900
C1611       C  0.71087259  0.08406705  0.06984839     0.77700
O1612       O  0.66870688  0.04055025  0.10295792    -0.60700
O1613       O  0.63588507  0.07273192  0.10532058    -0.51600
C1614       C  0.69261742  0.06737517  0.15471364     0.70400
O1615       O  0.71164386  0.06633740  0.13847340    -0.46500
C1616       C  0.68152352  0.14306574  0.11818819     0.75100
O1617       O  0.72163004  0.07550038  0.08940855    -0.58300
O1618       O  0.65891325  0.12909400  0.11259224    -0.48400
O1619       O  0.68544961  0.09378161  0.07164318    -0.54800
C1620       C  0.64206514  0.04626763  0.10266681     0.85300
O1621       O  0.66926515  0.07917676  0.14853963    -0.56700
O1622       O  0.70403524  0.12791746  0.12022860    -0.60000
In1623     In  0.70510704  0.46198128  0.36205654     1.36900
C1624       C  0.71085840  0.48634323  0.31962104     0.77700
O1625       O  0.75087134  0.44707541  0.35759639    -0.60700
O1626       O  0.71767122  0.41504057  0.35839884    -0.51600
C1627       C  0.71955037  0.47859617  0.40581062     0.70400
O1628       O  0.72714324  0.49284661  0.38754853    -0.46500
C1629       C  0.64765880  0.46290599  0.36593693     0.75100
O1630       O  0.71640375  0.99927790  0.33901464    -0.58300
O1631       O  0.66173823  0.43946694  0.36610068    -0.48400
O1632       O  0.70173436  0.46076112  0.32241467    -0.54800
C1633       C  0.74443263  0.42058828  0.35675909     0.85300
O1634       O  0.70437538  0.45649235  0.40150862    -0.56700
O1635       O  0.66289252  0.48542131  0.36342968    -0.60000
In1636     In  0.83503676  0.48413217  0.61091116     1.36900
C1637       C  0.80568985  0.48422109  0.57012747     0.77700
O1638       O  0.84954612  0.02983687  0.60367265    -0.60700
O1639       O  0.88096152  0.49747175  0.60369795    -0.51600
C1640       C  0.82555776  0.50077578  0.65547953     0.70400
O1641       O  0.80672763  0.50414676  0.63920823    -0.46500
C1642       C  0.83605784  0.42758102  0.61812443     0.75100
O1643       O  0.79521106  0.49439498  0.58924573    -0.58300
O1644       O  0.85873923  0.44173773  0.61312436    -0.48400
O1645       O  0.83120918  0.47483222  0.57188260    -0.54800
C1646       C  0.87619005  0.02438407  0.60223380     0.85300
O1647       O  0.84801673  0.48776369  0.64881117    -0.56700
O1648       O  0.81324111  0.44238955  0.61956757    -0.60000
C1649       C  0.72307858  0.48221026  0.47337563    -0.22300
C1650       C  0.75269569  0.48729216  0.47676797     0.09700
C1651       C  0.77061988  0.49281120  0.45685592     0.10100
C1652       C  0.75859550  0.49220723  0.43378132    -0.17200
C1653       C  0.72921457  0.48563711  0.43026336    -0.27600
C1654       C  0.71098610  0.48164367  0.45035281     0.18400
C1655       C  0.76458470  0.48640169  0.50134017     0.12400
C1656       C  0.80333168  0.99689874  0.46063643    -0.12000
H1657       H  0.77355114  0.99349919  0.41893558     0.12700
C1658       C  0.67871239  0.47722900  0.44824669    -0.22800
H1659       H  0.70934038  0.47856502  0.48880528     0.08300
C1660       C  0.76529039  0.51130757  0.51591172     0.04600
C1661       C  0.77781340  0.50966734  0.53878628    -0.20100
C1662       C  0.78974720  0.48370631  0.54724571    -0.12300
C1663       C  0.78783626  0.45838937  0.53297931     0.13300
C1664       C  0.77542686  0.46016560  0.51009752    -0.22800
C1665       C  0.75150364  0.03799379  0.50837393    -0.05800
H1666       H  0.77777292  0.02747032  0.55096176     0.14900
C1667       C  0.79783973  0.42904465  0.54146889    -0.16000
H1668       H  0.77423970  0.44094809  0.49895876     0.09200
H1669       H  0.66743716  0.49364318  0.45932410     0.07000
H1670       H  0.67282898  0.45531291  0.45485093     0.08200
H1671       H  0.67055636  0.47974984  0.42970642     0.07300
H1672       H  0.81288361  0.47941796  0.46861744     0.02200
H1673       H  0.80675273  0.01631968  0.47201931     0.02700
H1674       H  0.81434334  0.00064243  0.44324895     0.06200
H1675       H  0.75313874  0.05518971  0.52221058     0.05100
H1676       H  0.72825357  0.03462265  0.50409411    -0.00600
H1677       H  0.76293821  0.04565906  0.49208491     0.00800
H1678       H  0.77947062  0.41347589  0.54060145     0.04500
H1679       H  0.80578271  0.42910074  0.56018373     0.06400
H1680       H  0.81543739  0.42111817  0.52968344     0.07300
C1681       C  0.67918412  0.03428962  0.21598702    -0.22300
C1682       C  0.70723702  0.03409144  0.22541223     0.09700
C1683       C  0.73061276  0.04421241  0.21153403     0.10100
C1684       C  0.72529320  0.05469198  0.18837309    -0.17200
C1685       C  0.69706833  0.05556487  0.17901197    -0.27600
C1686       C  0.67367770  0.04496372  0.19297848     0.18400
C1687       C  0.71135670  0.02292961  0.24991312     0.12400
C1688       C  0.76099565  0.04431989  0.22134419    -0.12000
H1689       H  0.74318812  0.06268992  0.17769208     0.12700
C1690       C  0.64295877  0.04407700  0.18374025    -0.22800
H1691       H  0.66149362  0.02614151  0.22683199     0.08300
C1692       C  0.70470215  0.03992131  0.27010819     0.04600
C1693       C  0.70624367  0.02742391  0.29294730    -0.20100
C1694       C  0.71455430  0.99843514  0.29593598    -0.12300
C1695       C  0.72311692  0.48319434  0.27556449     0.13300
C1696       C  0.72087517  0.99444637  0.25288587    -0.22800
C1697       C  0.69578914  0.07110351  0.26747060    -0.05800
H1698       H  0.69997093  0.04004248  0.30843965     0.14900
C1699       C  0.73538670  0.45303832  0.27728276    -0.16000
H1700       H  0.72695919  0.48292477  0.23716293     0.09200
H1701       H  0.63494290  0.06636965  0.18062738     0.07000
H1702       H  0.62802710  0.03380113  0.19678016     0.08200
H1703       H  0.64190769  0.03141206  0.16685548     0.07300
H1704       H  0.76775241  0.02184826  0.22554789     0.02200
H1705       H  0.76190990  0.05756556  0.23791647     0.02700
H1706       H  0.77667711  0.05353983  0.20833864     0.06200
H1707       H  0.69174975  0.08140808  0.28510454     0.05100
H1708       H  0.67561267  0.07253013  0.25672456    -0.00600
H1709       H  0.71323711  0.08346090  0.25834047     0.00800
H1710       H  0.72030340  0.43738975  0.26869596     0.04500
H1711       H  0.73976111  0.44604458  0.29588069     0.06400
H1712       H  0.75646687  0.45230764  0.26777390     0.07300
C1713       C  0.75761351  0.06375336  0.95917187    -0.22300
C1714       C  0.76727220  0.08227981  0.97737253     0.09700
C1715       C  0.78945359  0.10242470  0.97262967     0.10100
C1716       C  0.80098809  0.10407656  0.94953914    -0.17200
C1717       C  0.79034250  0.08675185  0.93069410    -0.27600
C1718       C  0.76821176  0.06607460  0.93569377     0.18400
C1719       C  0.75240620  0.08181328  0.00079774     0.12400
C1720       C  0.80015739  0.12300947  0.99167145    -0.12000
H1721       H  0.81794465  0.11982435  0.94605306     0.12700
C1722       C  0.75360175  0.04709682  0.91722118    -0.22800
H1723       H  0.74048845  0.04834574  0.96307606     0.08300
C1724       C  0.72468557  0.09399267  0.00357509     0.04600
C1725       C  0.71176619  0.09395759  0.02623049    -0.20100
C1726       C  0.72620613  0.08293756  0.04646415    -0.12300
C1727       C  0.75450235  0.07151262  0.04365814     0.13300
C1728       C  0.76692194  0.07060801  0.02074191    -0.22800
C1729       C  0.70911602  0.10790600  0.98281657    -0.05800
H1730       H  0.69032253  0.10312664  0.02814335     0.14900
C1731       C  0.77214580  0.06075187  0.06453025    -0.16000
H1732       H  0.78839305  0.06168362  0.01837969     0.09200
H1733       H  0.72978364  0.04997933  0.91838957     0.07000
H1734       H  0.75867851  0.02406474  0.92098973     0.08200
H1735       H  0.75934981  0.05177911  0.89852649     0.07300
H1736       H  0.80985386  0.11068765  0.00670666     0.02200
H1737       H  0.78184982  0.13613801  0.99846456     0.02700
H1738       H  0.81691836  0.13809074  0.98468558     0.06200
H1739       H  0.68797488  0.11714220  0.98829622     0.05100
H1740       H  0.70491020  0.09164580  0.96860272    -0.00600
H1741       H  0.72255616  0.12576560  0.97540973     0.00800
H1742       H  0.79387187  0.05316648  0.05886443     0.04500
H1743       H  0.76094431  0.04225844  0.07324026     0.06400
H1744       H  0.77547274  0.07855498  0.07762105     0.07300
C1745       C  0.84515421  0.03045781  0.71704638    -0.22300
C1746       C  0.81734445  0.03612212  0.72553388     0.09700
C1747       C  0.78974365  0.53065023  0.71115126     0.10100
C1748       C  0.79416996  0.51927413  0.68814982    -0.17200
C1749       C  0.82203205  0.51174102  0.68023454    -0.27600
C1750       C  0.84947966  0.01908947  0.69413385     0.18400
C1751       C  0.81464654  0.04869569  0.74962555     0.12400
C1752       C  0.75966890  0.53851119  0.71912576    -0.12000
H1753       H  0.77579249  0.51629166  0.67632259     0.12700
C1754       C  0.88021142  0.01451002  0.68589194    -0.22800
H1755       H  0.86360321  0.03516844  0.72847148     0.08300
C1756       C  0.81368411  0.03107464  0.77016477     0.04600
C1757       C  0.81379308  0.04412895  0.79278845    -0.20100
C1758       C  0.81540452  0.07436789  0.79532268    -0.12300
C1759       C  0.81602127  0.09201026  0.77448105     0.13300
C1760       C  0.81555520  0.07880217  0.75191839    -0.22800
C1761       C  0.81305894  0.99854971  0.76812692    -0.05800
H1762       H  0.81330601  0.03050946  0.80862993     0.14900
C1763       C  0.81701562  0.12464442  0.77559633    -0.16000
H1764       H  0.81651122  0.09200684  0.73584584     0.09200
H1765       H  0.88424068  0.99111913  0.68289375     0.07000
H1766       H  0.89611572  0.02211540  0.69941091     0.08200
H1767       H  0.88426833  0.02689104  0.66918135     0.07300
H1768       H  0.75879541  0.56193058  0.72353539     0.02200
H1769       H  0.75377371  0.52573638  0.73523903     0.02700
H1770       H  0.74333610  0.53401975  0.70497741     0.06200
H1771       H  0.81235927  0.98797830  0.78597672     0.05100
H1772       H  0.83275370  0.99095104  0.75870567    -0.00600
H1773       H  0.78703125  0.49164161  0.75910336     0.00800
H1774       H  0.83757600  0.13192383  0.78401119     0.04500
H1775       H  0.79826278  0.13283329  0.78595440     0.06400
H1776       H  0.81602772  0.13456447  0.75749403     0.07300
C1777       C  0.51510446  0.07328849  0.96879152    -0.22300
C1778       C  0.50871783  0.04412973  0.97308993     0.09700
C1779       C  0.49269523  0.02805502  0.95620254     0.10100
C1780       C  0.98373768  0.04262729  0.93546403    -0.17200
C1781       C  0.98990384  0.07195301  0.93116602    -0.27600
C1782       C  0.50660015  0.08678668  0.94749682     0.18400
C1783       C  0.51989024  0.03073793  0.99516173     0.12400
C1784       C  0.48567024  0.99658478  0.96036561    -0.12000
H1785       H  0.97153766  0.03033420  0.92230317     0.12700
C1786       C  0.51722759  0.11736282  0.94345577    -0.22800
H1787       H  0.52777059  0.08532615  0.98184863     0.08300
C1788       C  0.54875476  0.02128805  0.99679554     0.04600
C1789       C  0.55880170  0.00989474  0.01846892    -0.20100
C1790       C  0.54071086  0.00791041  0.03864940    -0.12300
C1791       C  0.51152315  0.01716701  0.03675952     0.13300
C1792       C  0.50153491  0.02839203  0.01493575    -0.22800
C1793       C  0.56892015  0.02326405  0.97567027    -0.05800
H1794       H  0.58114003  0.00299228  0.01970631     0.14900
C1795       C  0.49064357  0.01540428  0.05740629    -0.16000
H1796       H  0.97932984  0.03663660  0.01386439     0.09200
H1797       H  0.54098131  0.11832008  0.94653645     0.07000
H1798       H  0.00567717  0.13328135  0.95748910     0.08200
H1799       H  0.01233809  0.12702144  0.92612581     0.07300
H1800       H  0.97336157  0.99461165  0.97686214     0.02200
H1801       H  0.50601559  0.98408243  0.96233472     0.02700
H1802       H  0.97598651  0.48696040  0.94497634     0.06200
H1803       H  0.59076392  0.01473320  0.97998629     0.05100
H1804       H  0.57141068  0.04619385  0.97005621    -0.00600
H1805       H  0.55998320  0.01047256  0.96051779     0.00800
H1806       H  0.99813667  0.02992464  0.07270144     0.04500
H1807       H  0.48894921  0.99269009  0.06377650     0.06400
H1808       H  0.96860428  0.02305777  0.05269635     0.07300
C1809       C  0.93192590  0.29011041  0.50664987    -0.22300
C1810       C  0.95933770  0.28865613  0.49614389     0.09700
C1811       C  0.98278708  0.27724595  0.50927541     0.10100
C1812       C  0.97790675  0.26636373  0.53244769    -0.17200
C1813       C  0.95023633  0.26724709  0.54282674    -0.27600
C1814       C  0.92714623  0.28028802  0.53001002     0.18400
C1815       C  0.96287636  0.30113134  0.47192871     0.12400
C1816       C  0.51266823  0.27593696  0.49818130    -0.12000
H1817       H  0.99568199  0.25692588  0.54241598     0.12700
C1818       C  0.89757649  0.28577842  0.54057121    -0.22800
H1819       H  0.91423668  0.29985699  0.49673488     0.08300
C1820       C  0.96039464  0.28400840  0.45112026     0.04600
C1821       C  0.96065279  0.29748612  0.42857473    -0.20100
C1822       C  0.96228329  0.32777427  0.42643847    -0.12300
C1823       C  0.96535624  0.34483872  0.44743978     0.13300
C1824       C  0.96575877  0.33120254  0.46987858    -0.22800
C1825       C  0.95621857  0.25169395  0.45272052    -0.05800
H1826       H  0.95828677  0.28439299  0.41261744     0.14900
C1827       C  0.96840431  0.37736407  0.44655795    -0.16000
H1828       H  0.96745712  0.34410152  0.48601641     0.09200
H1829       H  0.88115193  0.27237405  0.53111301     0.07000
H1830       H  0.89191831  0.30896372  0.53821350     0.08200
H1831       H  0.89623510  0.28147976  0.56000667     0.07300
H1832       H  0.52002000  0.29835852  0.49428107     0.02200
H1833       H  0.51304798  0.26315174  0.48140343     0.02700
H1834       H  0.52830379  0.26605785  0.51087920     0.06200
H1835       H  0.95436754  0.24162412  0.43473032     0.05100
H1836       H  0.93609500  0.24676620  0.46278778    -0.00600
H1837       H  0.97484048  0.24165606  0.46206129     0.00800
H1838       H  0.94817015  0.38722802  0.43967953     0.04500
H1839       H  0.98688913  0.38345596  0.43489113     0.06400
H1840       H  0.97250083  0.38670621  0.46457543     0.07300
C1841       C  0.50206293  0.26826901  0.70502524    -0.22300
C1842       C  0.49752513  0.24578584  0.72143141     0.09700
C1843       C  0.98079798  0.21986126  0.71574134     0.10100
C1844       C  0.96820982  0.21904653  0.69290315    -0.17200
C1845       C  0.97183844  0.24197231  0.67668912    -0.27600
C1846       C  0.48925026  0.26759809  0.68220472     0.18400
C1847       C  0.51260210  0.24644238  0.74481452     0.12400
C1848       C  0.97665857  0.19459552  0.73249618    -0.12000
H1849       H  0.95575352  0.20022623  0.68753340     0.12700
C1850       C  0.49318330  0.29391820  0.66654110    -0.22800
H1851       H  0.51546388  0.28657445  0.71015798     0.08300
C1852       C  0.54059354  0.23484200  0.74729144     0.04600
C1853       C  0.55243010  0.23146763  0.77022723    -0.20100
C1854       C  0.53675522  0.23899133  0.79081045    -0.12300
C1855       C  0.50890609  0.25154626  0.78822978     0.13300
C1856       C  0.49747876  0.25556106  0.76514861    -0.22800
C1857       C  0.55741311  0.22484981  0.72576415    -0.05800
H1858       H  0.57366413  0.22183349  0.77216012     0.14900
C1859       C  0.48944726  0.25889344  0.80900264    -0.16000
H1860       H  0.97518311  0.26146218  0.76433624     0.09200
H1861       H  0.51641454  0.29649137  0.66192814     0.07000
H1862       H  0.48601473  0.31345629  0.67645114     0.08200
H1863       H  0.48038656  0.29319517  0.64981101     0.07300
H1864       H  0.96574031  0.20196551  0.74908510     0.02200
H1865       H  0.99798414  0.18514780  0.73720233     0.02700
H1866       H  0.96314353  0.17727711  0.72430790     0.06200
H1867       H  0.57887305  0.21599400  0.73086441     0.05100
H1868       H  0.56098324  0.24333595  0.71340205    -0.00600
H1869       H  0.54515663  0.20758434  0.71626340     0.00800
H1870       H  0.48476276  0.28245312  0.80883199     0.04500
H1871       H  0.49848111  0.25326755  0.82669028     0.06400
H1872       H  0.96901405  0.24409481  0.80874904     0.07300
C1873       C  0.56742830  0.31339555  0.99711408    -0.22300
C1874       C  0.56266868  0.28364383  0.99418293     0.09700
C1875       C  0.55841796  0.26596545  0.01447750     0.10100
C1876       C  0.55990141  0.27838994  0.03740167    -0.17200
C1877       C  0.56575762  0.30802365  0.04041149    -0.27600
C1878       C  0.56875964  0.32591475  0.01995860     0.18400
C1879       C  0.56363858  0.27134183  0.96972149     0.12400
C1880       C  0.55266123  0.23399382  0.01189928    -0.12000
H1881       H  0.55763110  0.26470996  0.05305663     0.12700
C1882       C  0.57273723  0.35829518  0.02142232    -0.22800
H1883       H  0.57032880  0.32692600  0.98142845     0.08300
C1884       C  0.53989083  0.27331520  0.95391699     0.04600
C1885       C  0.54226135  0.26176575  0.93075996    -0.20100
C1886       C  0.56786346  0.24837743  0.92307888    -0.12300
C1887       C  0.59198766  0.24720696  0.93877423     0.10100
C1888       C  0.58935041  0.25837653  0.96200758    -0.22800
C1889       C  0.51200839  0.28726932  0.96160981    -0.05800
H1890       H  0.52385405  0.26272138  0.91872516     0.14900
C1891       C  0.62121391  0.23567268  0.93150910    -0.16000
H1892       H  0.60772640  0.25750237  0.97409539     0.09200
H1893       H  0.55551704  0.36906650  0.01080215     0.07000
H1894       H  0.59413495  0.36438844  0.01388915     0.08200
H1895       H  0.57121965  0.36684077  0.03988988     0.07300
H1896       H  0.57114682  0.22345619  0.00275728     0.02200
H1897       H  0.53267819  0.23052597  0.00118053     0.02700
H1898       H  0.54968818  0.22334814  0.02955585     0.06200
H1899       H  0.99803305  0.28905787  0.94700570     0.05100
H1900       H  0.51598222  0.31031902  0.96624315    -0.00600
H1901       H  0.50322381  0.27581259  0.97750369     0.00800
H1902       H  0.63799989  0.25253625  0.93471149     0.04500
H1903       H  0.62256925  0.22976154  0.91235667     0.06400
H1904       H  0.62654350  0.21635676  0.94247246     0.07300
C1905       C  0.54365359  0.34798209  0.21811553    -0.22300
C1906       C  0.51435770  0.34033028  0.21934617     0.09700
C1907       C  0.00885952  0.32272830  0.20209085     0.10100
C1908       C  0.51498298  0.32969628  0.17675132    -0.17200
C1909       C  0.54441801  0.33756302  0.17524333    -0.27600
C1910       C  0.55896127  0.34673520  0.19643184     0.18400
C1911       C  0.00384493  0.34366278  0.24365079     0.12400
C1912       C  0.98374250  0.30250287  0.20640103    -0.12000
H1913       H  0.01660076  0.30665189  0.16651035     0.12700
C1914       C  0.59046957  0.35546239  0.19666571    -0.22800
H1915       H  0.55452166  0.35513270  0.23427541     0.08300
C1916       C  0.50021064  0.32036207  0.25975866     0.04600
C1917       C  0.00085723  0.32941014  0.28544923    -0.20100
C1918       C  0.97866109  0.34954872  0.28952899    -0.12300
C1919       C  0.96826051  0.36625303  0.26993623     0.13300
C1920       C  0.98111903  0.36307678  0.24731593    -0.22800
C1921       C  0.51404012  0.29175607  0.25391199    -0.05800
H1922       H  0.00894567  0.31654380  0.30023607     0.14900
C1923       C  0.94349790  0.38723765  0.27240398    -0.16000
H1924       H  0.97366550  0.37610543  0.23236883     0.09200
H1925       H  0.59791065  0.36184869  0.21483872     0.07000
H1926       H  0.59392659  0.37435863  0.18470806     0.08200
H1927       H  0.60406036  0.33700908  0.19080168     0.07300
H1928       H  0.96390712  0.31525992  0.21001111     0.02200
H1929       H  0.98829509  0.28839144  0.22201722     0.02700
H1930       H  0.97949112  0.28838242  0.19068213     0.06200
H1931       H  0.51260685  0.27635329  0.26913396     0.05100
H1932       H  0.53725817  0.29510064  0.24958792    -0.00600
H1933       H  0.50298054  0.28179524  0.23827611     0.00800
H1934       H  0.94960938  0.40530364  0.28448863     0.04500
H1935       H  0.92416091  0.37580472  0.27953540     0.06400
H1936       H  0.93740749  0.39696744  0.25492797     0.07300
C1937       C  0.52648142  0.00206303  0.20672264    -0.22300
C1938       C  0.54960690  0.49560365  0.22241390     0.09700
C1939       C  0.57792586  0.49310786  0.21343002     0.10100
C1940       C  0.58204900  0.49166337  0.18872920    -0.17200
C1941       C  0.55853436  0.49231596  0.17270423    -0.27600
C1942       C  0.53060232  0.00071200  0.18181632     0.18400
C1943       C  0.54426217  0.49258914  0.24819876     0.12400
C1944       C  0.60374022  0.49100172  0.22994321    -0.12000
H1945       H  0.60389352  0.48938815  0.18197459     0.12700
C1946       C  0.50500442  0.00577847  0.16563484    -0.22800
H1947       H  0.50509502  0.00594419  0.21395140     0.08300
C1948       C  0.54571563  0.51638168  0.26390211     0.04600
C1949       C  0.54598237  0.51130731  0.28863935    -0.20100
C1950       C  0.54518904  0.48295721  0.29773332    -0.12300
C1951       C  0.54137554  0.45930101  0.28179117     0.13300
C1952       C  0.54092609  0.46456305  0.25718611    -0.22800
C1953       C  0.54767544  0.54686793  0.25448237    -0.05800
H1954       H  0.54820758  0.52945210  0.30084313     0.14900
C1955       C  0.53793464  0.42843793  0.29030141    -0.16000
H1956       H  0.53940637  0.44654556  0.24476200     0.09200
H1957       H  0.48509686  0.01073620  0.17595472     0.07000
H1958       H  0.50059798  0.98611460  0.15478237     0.08200
H1959       H  0.50944610  0.02448107  0.15368892     0.07300
H1960       H  0.60139279  0.47189218  0.24184193     0.02200
H1961       H  0.60543485  0.51086439  0.24104320     0.02700
H1962       H  0.62429312  0.48856341  0.21987494     0.06200
H1963       H  0.54833727  0.56300172  0.26922109     0.05100
H1964       H  0.53406835  0.05512609  0.24408231    -0.00600
H1965       H  0.56757149  0.54954129  0.24359225     0.00800
H1966       H  0.99352404  0.43508740  0.28297100     0.04500
H1967       H  0.52020846  0.42706201  0.30364677     0.06400
H1968       H  0.55844150  0.42064284  0.29834987     0.07300
C1969       C  0.97087238  0.10230265  0.70979375    -0.22300
C1970       C  0.96559602  0.07595664  0.72140185     0.09700
C1971       C  0.95872937  0.05102481  0.70794536     0.10100
C1972       C  0.95647503  0.05325134  0.68294760    -0.17200
C1973       C  0.96078714  0.07990052  0.67143405    -0.27600
C1974       C  0.96850820  0.10462731  0.68492039     0.18400
C1975       C  0.96514056  0.07590814  0.74777462     0.12400
C1976       C  0.95320658  0.02240788  0.72005407    -0.12000
H1977       H  0.95011026  0.03450101  0.67247784     0.12700
C1978       C  0.97382727  0.13386475  0.67371587    -0.22800
H1979       H  0.97613487  0.12136740  0.72030839     0.08300
C1980       C  0.99067581  0.07282093  0.76136811     0.04600
C1981       C  0.98945061  0.07629636  0.78629158    -0.20100
C1982       C  0.96338173  0.08346915  0.79761460    -0.12300
C1983       C  0.93756931  0.08547494  0.78401206     0.13300
C1984       C  0.93885183  0.08169171  0.75919734    -0.22800
C1985       C  0.01923629  0.06682080  0.74945468    -0.05800
H1986       H  0.00915522  0.07496167  0.79680869     0.14900
C1987       C  0.90834448  0.09147898  0.79497672    -0.16000
H1988       H  0.91929829  0.08392841  0.74857687     0.09200
H1989       H  0.48387846  0.14863075  0.67973950     0.07000
H1990       H  0.95757392  0.14941094  0.68052270     0.08200
H1991       H  0.97242485  0.13354518  0.65391332     0.07300
H1992       H  0.93465575  0.02437403  0.73254881     0.02200
H1993       H  0.97271118  0.01578817  0.73027372     0.02700
H1994       H  0.94809171  0.00508349  0.70690040     0.06200
H1995       H  0.54183089  0.08364803  0.76040039     0.05100
H1996       H  0.52367505  0.10002873  0.73538217    -0.00600
H1997       H  0.01794223  0.04608339  0.73946447     0.00800
H1998       H  0.90006984  0.11254164  0.78831644     0.04500
H1999       H  0.90878844  0.09204855  0.81479302     0.06400
H2000       H  0.89285471  0.07414393  0.78970724     0.07300
C2001       C  0.98028725  0.06388606  0.49378427    -0.22300
C2002       C  0.00843341  0.05297295  0.49531367     0.09700
C2003       C  0.52392595  0.05441378  0.51711704     0.10100
C2004       C  0.00868357  0.06334624  0.53790603    -0.17200
C2005       C  0.97972470  0.07273664  0.53683193    -0.27600
C2006       C  0.96561202  0.07366972  0.51421179     0.18400
C2007       C  0.02057368  0.03841337  0.47399310     0.12400
C2008       C  0.55469154  0.04400298  0.51922404    -0.12000
H2009       H  0.52045521  0.06384747  0.55463246     0.12700
C2010       C  0.93495211  0.08416405  0.51121091    -0.22800
H2011       H  0.96934489  0.06354643  0.47663916     0.08300
C2012       C  0.51380950  0.50910330  0.46959225     0.04600
C2013       C  0.52445921  0.49651517  0.44860131    -0.20100
C2014       C  0.53919043  0.51298122  0.43131227    -0.12300
C2015       C  0.54643069  0.04334799  0.43510724     0.13300
C2016       C  0.53617441  0.05607834  0.45632805    -0.22800
C2017       C  0.01123348  0.48840107  0.49154518    -0.05800
H2018       H  0.52049337  0.47367665  0.44535792     0.14900
C2019       C  0.56261682  0.06261049  0.41789342    -0.16000
H2020       H  0.53940205  0.07909044  0.45935542     0.09200
H2021       H  0.92799652  0.08392616  0.49216885     0.07000
H2022       H  0.93317953  0.10679341  0.51773642     0.08200
H2023       H  0.91986461  0.06988355  0.52123531     0.07300
H2024       H  0.56889091  0.05724948  0.50748982     0.02200
H2025       H  0.55609494  0.02097244  0.51370016     0.02700
H2026       H  0.56292143  0.04577253  0.53785932     0.06200
H2027       H  0.01379742  0.46521024  0.48675409     0.05100
H2028       H  0.98798797  0.49225161  0.49536559    -0.00600
H2029       H  0.50848907  0.49099215  0.50484808     0.00800
H2030       H  0.54780530  0.07948812  0.41085321     0.04500
H2031       H  0.57217073  0.05080843  0.40264782     0.06400
H2032       H  0.58078965  0.07342197  0.42744977     0.07300
C2033       C  0.76135740  0.27731537  0.26833223    -0.22300
C2034       C  0.76125083  0.29464931  0.24778742     0.09700
C2035       C  0.77186968  0.32323739  0.24900921     0.10100
C2036       C  0.78232344  0.33394871  0.27088727    -0.17200
C2037       C  0.78227176  0.31686339  0.29177089    -0.27600
C2038       C  0.77164624  0.28797559  0.29035751     0.18400
C2039       C  0.74877458  0.28282907  0.22537075     0.12400
C2040       C  0.77195510  0.34248842  0.22722997    -0.12000
H2041       H  0.79022123  0.35606602  0.27167580     0.12700
C2042       C  0.77077390  0.26815922  0.31177711    -0.22800
H2043       H  0.75298338  0.25539174  0.26712848     0.08300
C2044       C  0.76572195  0.26738538  0.20877609     0.04600
C2045       C  0.75281470  0.25698634  0.18764305    -0.20100
C2046       C  0.72329891  0.26150314  0.18292694    -0.12300
C2047       C  0.70654338  0.27772828  0.19936314     0.13300
C2048       C  0.71945573  0.28773173  0.22055004    -0.22800
C2049       C  0.79731575  0.26180059  0.21348988    -0.05800
H2050       H  0.76568737  0.24488070  0.17493477     0.14900
C2051       C  0.67547950  0.28623926  0.19484325    -0.16000
H2052       H  0.70670755  0.30005877  0.23320464     0.09200
H2053       H  0.76223911  0.24635147  0.30710088     0.07000
H2054       H  0.75637349  0.27732039  0.32571143     0.08200
H2055       H  0.79295036  0.26531862  0.31907717     0.07300
H2056       H  0.74949184  0.34532519  0.22055892     0.02200
H2057       H  0.78527977  0.33256773  0.21292474     0.02700
H2058       H  0.78104418  0.36426108  0.23124843     0.06200
H2059       H  0.80744155  0.24938448  0.19870801     0.05100
H2060       H  0.79976287  0.24914053  0.23026037    -0.00600
H2061       H  0.80910342  0.28267277  0.21536758     0.00800
H2062       H  0.66126452  0.27568927  0.20829132     0.04500
H2063       H  0.66754811  0.28064924  0.17672991     0.06400
H2064       H  0.67335244  0.31009167  0.19660147     0.07300
C2065       C  0.77720571  0.32024099  0.51732475    -0.22300
C2066       C  0.79794492  0.33068887  0.50123604     0.09700
C2067       C  0.82407549  0.34263035  0.50976564     0.10100
C2068       C  0.82917018  0.34342625  0.53435096    -0.17200
C2069       C  0.80870728  0.33275389  0.55076502    -0.27600
C2070       C  0.78220460  0.32112030  0.54212953     0.18400
C2071       C  0.79192410  0.33017493  0.47539138     0.12400
C2072       C  0.84654294  0.35479268  0.49291591    -0.12000
H2073       H  0.84937004  0.35264112  0.54071756     0.12700
C2074       C  0.75921199  0.30947922  0.55866485    -0.22800
H2075       H  0.75707884  0.31142159  0.51039667     0.08300
C2076       C  0.80298751  0.30812243  0.46060480     0.04600
C2077       C  0.80253803  0.31192197  0.43569659    -0.20100
C2078       C  0.79125880  0.33729951  0.42557924    -0.12300
C2079       C  0.77751126  0.35794688  0.44043800     0.13300
C2080       C  0.77842568  0.35427552  0.46525437    -0.22800
C2081       C  0.81619637  0.28123557  0.47121375    -0.05800
H2082       H  0.81258637  0.29594076  0.42424855     0.14900
C2083       C  0.76169193  0.38404804  0.43086028    -0.16000
H2084       H  0.76951208  0.37085349  0.47681624     0.09200
H2085       H  0.76812414  0.29144898  0.56952286     0.07000
H2086       H  0.74021877  0.30097023  0.54862715     0.08200
H2087       H  0.75140894  0.32699785  0.57059793     0.07300
H2088       H  0.83704785  0.37271340  0.48227825     0.02200
H2089       H  0.85420079  0.33761884  0.48060035     0.02700
H2090       H  0.86567065  0.36346926  0.50267833     0.06200
H2091       H  0.82391567  0.26618439  0.45712679     0.05100
H2092       H  0.79976352  0.26971568  0.48217838    -0.00600
H2093       H  0.83492066  0.28705010  0.48275786     0.00800
H2094       H  0.73935154  0.38431431  0.43816961     0.04500
H2095       H  0.75958701  0.38403963  0.41111304     0.06400
H2096       H  0.77304662  0.40414602  0.43655703     0.07300
C2097       C  0.73345340  0.24910551  0.96087740    -0.22300
C2098       C  0.71609169  0.23062872  0.97462052     0.09700
C2099       C  0.69851701  0.20965410  0.96346968     0.10100
C2100       C  0.69894794  0.20735971  0.93858098    -0.17200
C2101       C  0.71623523  0.22580618  0.92448891    -0.27600
C2102       C  0.73376298  0.24704307  0.93581993     0.18400
C2103       C  0.71504880  0.23472097  0.00064828     0.12400
C2104       C  0.67892697  0.19003118  0.97779336    -0.12000
H2105       H  0.68533835  0.19116433  0.93010596     0.12700
C2106       C  0.75299772  0.26735825  0.92191117    -0.22800
H2107       H  0.74659061  0.26531306  0.96983924     0.08300
C2108       C  0.73263993  0.21849118  0.01627443     0.04600
C2109       C  0.72874337  0.22142162  0.04101202    -0.20100
C2110       C  0.70730956  0.23974447  0.05013850    -0.12300
C2111       C  0.69051814  0.25686328  0.03439532     0.13300
C2112       C  0.69462489  0.25403967  0.00975855    -0.22800
C2113       C  0.75478914  0.19755059  0.00682678    -0.05800
H2114       H  0.74132570  0.20820999  0.05320471     0.14900
C2115       C  0.66822958  0.27835670  0.04285340    -0.16000
H2116       H  0.68135400  0.26651745  0.99751307     0.09200
H2117       H  0.76876932  0.25476205  0.91119997     0.07000
H2118       H  0.76546610  0.28202746  0.93389526     0.08200
H2119       H  0.73966201  0.28108725  0.90991947     0.07300
H2120       H  0.66307172  0.20321482  0.98791819     0.02200
H2121       H  0.69187588  0.17699588  0.99056532     0.02700
H2122       H  0.66664388  0.17482661  0.96614499     0.06200
H2123       H  0.76661366  0.18654773  0.02155237     0.05100
H2124       H  0.77081182  0.20933238  0.99565509    -0.00600
H2125       H  0.74405931  0.18065872  0.99576887     0.00800
H2126       H  0.67317268  0.29999775  0.03517688     0.04500
H2127       H  0.66781737  0.28092046  0.06255950     0.06400
H2128       H  0.64638516  0.27148129  0.03668581     0.07300
C2129       C  0.76566722  0.25120223  0.75290012    -0.22300
C2130       C  0.76177195  0.28110402  0.75076997     0.09700
C2131       C  0.74769817  0.29656633  0.76905429     0.10100
C2132       C  0.73768378  0.28157321  0.78926949    -0.17200
C2133       C  0.74122787  0.25146795  0.79137481    -0.27600
C2134       C  0.75568705  0.23610349  0.77300268     0.18400
C2135       C  0.77290026  0.29555995  0.72911829     0.12400
C2136       C  0.74352544  0.32881441  0.76723723    -0.12000
H2137       H  0.72682552  0.29337486  0.80340104     0.12700
C2138       C  0.76165981  0.20406763  0.77471715    -0.22800
H2139       H  0.77676721  0.23967486  0.73872352     0.08300
C2140       C  0.80246747  0.30244913  0.72679046     0.04600
C2141       C  0.81259374  0.31359106  0.70506263    -0.20100
C2142       C  0.79393469  0.31748140  0.68541192    -0.12300
C2143       C  0.76400011  0.31124765  0.68807483     0.13300
C2144       C  0.75390978  0.30048310  0.71002522    -0.22800
C2145       C  0.82337335  0.29765624  0.74713662    -0.05800
H2146       H  0.83546527  0.31834750  0.70322681     0.14900
C2147       C  0.74250810  0.31565036  0.66807468    -0.16000
H2148       H  0.73117891  0.29505411  0.71215387     0.09200
H2149       H  0.77484486  0.19625607  0.75943174     0.07000
H2150       H  0.74101544  0.19171067  0.77452723     0.08200
H2151       H  0.77381865  0.19933614  0.79142714     0.07300
H2152       H  0.73030598  0.33395792  0.75118728     0.02200
H2153       H  0.76490056  0.33973910  0.76571309     0.02700
H2154       H  0.73228567  0.33762303  0.78319435     0.06200
H2155       H  0.84573022  0.30440769  0.74234701     0.05100
H2156       H  0.82386836  0.27434788  0.75196116    -0.00600
H2157       H  0.81649549  0.31043430  0.76294898     0.00800
H2158       H  0.71998797  0.31100550  0.67392381     0.04500
H2159       H  0.74737400  0.30080587  0.65300848     0.06400
H2160       H  0.74334709  0.33846721  0.66184332     0.07300
In2161     In  0.71406824  0.70848858  0.85229572     1.36900
C2162       C  0.71636322  0.72061015  0.89824394     0.77700
O2163       O  0.67120221  0.73035307  0.85009080    -0.60700
O2164       O  0.67166521  0.68430307  0.84829234    -0.51600
C2165       C  0.73026844  0.73571412  0.81307795     0.70400
O2166       O  0.72869021  0.74837343  0.83309565    -0.46500
C2167       C  0.75551669  0.66940350  0.85461323     0.75100
O2168       O  0.72619383  0.73798393  0.88272000    -0.58300
O2169       O  0.72984351  0.66288543  0.84867224    -0.48400
O2170       O  0.70530864  0.69779336  0.88984247    -0.54800
C2171       C  0.65673309  0.70717084  0.84920964     0.85300
O2172       O  0.72232908  0.70952959  0.81317736    -0.56700
O2173       O  0.76006570  0.69590625  0.85851057    -0.60000
In2174     In  0.83323872  0.83830352  0.62212239     1.36900
C2175       C  0.81732410  0.83281556  0.57712112     0.77700
O2176       O  0.81304655  0.88208730  0.62235049    -0.60700
O2177       O  0.85903629  0.88000027  0.62172987    -0.51600
C2178       C  0.80768207  0.82623967  0.66314555     0.70400
O2179       O  0.79494359  0.82380551  0.64322886    -0.46500
C2180       C  0.87163471  0.79605621  0.62140344     0.75100
O2181       O  0.79986657  0.82803662  0.59408381    -0.58300
O2182       O  0.87853624  0.82204222  0.62588219    -0.48400
O2183       O  0.84245290  0.84004846  0.58363563    -0.54800
C2184       C  0.83669420  0.89567240  0.62107573     0.85300
O2185       O  0.83328794  0.83582399  0.66186626    -0.56700
O2186       O  0.84495641  0.79150066  0.61836782    -0.60000
In2187     In  0.80726883  0.85649268  0.35588815     1.36900
C2188       C  0.79789461  0.84192182  0.40099192     0.77700
O2189       O  0.85155989  0.83648714  0.35765943    -0.60700
O2190       O  0.84903043  0.88206528  0.35354566    -0.51600
C2191       C  0.79306749  0.82964704  0.31514089     0.70400
O2192       O  0.79089256  0.81780495  0.33541896    -0.46500
C2193       C  0.76725337  0.89743700  0.35558145     0.75100
O2194       O  0.79615362  0.82350258  0.38432317    -0.58300
O2195       O  0.79388813  0.90306447  0.35306334    -0.48400
O2196       O  0.80550225  0.86690666  0.39453237    -0.54800
C2197       C  0.86501364  0.86019467  0.35603874     0.85300
O2198       O  0.80348387  0.85495319  0.31587312    -0.56700
O2199       O  0.76109238  0.87091488  0.35728212    -0.60000
In2200     In  0.68610216  0.73264516  0.12072413     1.36900
C2201       C  0.70134749  0.73799369  0.07545776     0.77700
O2202       O  0.70607857  0.68860884  0.12215861    -0.60700
O2203       O  0.66018680  0.69091732  0.12114436    -0.51600
C2204       C  0.71186852  0.74930953  0.16088923     0.70400
O2205       O  0.72407430  0.75126963  0.14073985    -0.46500
C2206       C  0.64648882  0.77382205  0.12005059     0.75100
O2207       O  0.71985605  0.73904195  0.09212243    -0.58300
O2208       O  0.64011772  0.74758752  0.12409719    -0.48400
O2209       O  0.67563349  0.73400385  0.08206904    -0.54800
C2210       C  0.68239516  0.67508395  0.12087826     0.85300
O2211       O  0.68737769  0.73704720  0.16057924    -0.56700
O2212       O  0.67308594  0.77899540  0.11729179    -0.60000
In2213     In  0.93768387  0.58756199  0.60183167     1.36900
C2214       C  0.95533323  0.58001657  0.64630416     0.77700
O2215       O  0.95815426  0.63139192  0.60403240    -0.60700
O2216       O  0.91237446  0.62932151  0.60052665    -0.51600
C2217       C  0.96343535  0.57741876  0.56020405     0.70400
O2218       O  0.97536621  0.57233496  0.58012209    -0.46500
C2219       C  0.89723529  0.54670695  0.60122838     0.75100
O2220       O  0.97223790  0.57659235  0.62881689    -0.58300
O2221       O  0.89120357  0.57334845  0.60041169    -0.48400
O2222       O  0.92976617  0.58674869  0.64097170    -0.54800
C2223       C  0.93463150  0.64501474  0.60299277     0.85300
O2224       O  0.93846524  0.58818580  0.56181737    -0.56700
O2225       O  0.92388431  0.54099028  0.60154217    -0.60000
In2226     In  0.55941329  0.96776072  0.36918473     1.36900
C2227       C  0.55052109  0.97917900  0.32351054     0.77700
O2228       O  0.60356042  0.98699413  0.36477446    -0.60700
O2229       O  0.60094605  0.94203405  0.37255953    -0.51600
C2230       C  0.54952380  0.99791609  0.40885395     0.70400
O2231       O  0.54697711  0.00884262  0.38824388    -0.46500
C2232       C  0.51752528  0.92827927  0.37035883     0.75100
O2233       O  0.54646814  0.99811161  0.33950965    -0.58300
O2234       O  0.54385767  0.92191603  0.37351777    -0.48400
O2235       O  0.55983083  0.95534490  0.33112694    -0.54800
C2236       C  0.61691765  0.96357029  0.36791225     0.85300
O2237       O  0.55750343  0.97180051  0.40897314    -0.56700
O2238       O  0.51248894  0.95494667  0.36816425    -0.60000
In2239     In  0.58468041  0.83624246  0.10965192     1.36900
C2240       C  0.55949242  0.83612559  0.15244847     0.77700
O2241       O  0.59794077  0.79060885  0.11682834    -0.60700
O2242       O  0.63097987  0.82290564  0.11472770    -0.51600
C2243       C  0.57140433  0.81865872  0.06577778     0.70400
O2244       O  0.55554023  0.81274221  0.08358067    -0.46500
C2245       C  0.58398635  0.89323852  0.10325646     0.75100
O2246       O  0.54620988  0.82878216  0.13351299    -0.58300
O2247       O  0.60735767  0.87938638  0.10595580    -0.48400
O2248       O  0.58558513  0.84318507  0.14914233    -0.54800
C2249       C  0.62460356  0.79642743  0.11746704     0.85300
O2250       O  0.59345714  0.83377120  0.07053926    -0.56700
O2251       O  0.56132969  0.87787550  0.10339630    -0.60000
In2252     In  0.56802233  0.70972445  0.85728112     1.36900
C2253       C  0.56860234  0.73386484  0.90030656     0.77700
O2254       O  0.52295190  0.69576157  0.86668657    -0.60700
O2255       O  0.55345353  0.66314748  0.85783607    -0.51600
C2256       C  0.54881793  0.72957937  0.81560221     0.70400
O2257       O  0.54784248  0.74455859  0.83447565    -0.46500
C2258       C  0.62500661  0.70732688  0.85068932     0.75100
O2259       O  0.55819327  0.74642732  0.88216408    -0.58300
O2260       O  0.60987761  0.68475830  0.85366410    -0.48400
O2261       O  0.57839458  0.70884688  0.89640733    -0.54800
C2262       C  0.52774308  0.66924462  0.86353225     0.85300
O2263       O  0.56082080  0.70529706  0.81798482    -0.56700
O2264       O  0.61090183  0.73063201  0.85039886    -0.60000
In2265     In  0.93342975  0.73371836  0.61073481     1.36900
C2266       C  0.95888571  0.73793686  0.65293172     0.77700
O2267       O  0.91989723  0.77897209  0.61843636    -0.60700
O2268       O  0.88683042  0.74687658  0.61536297    -0.51600
C2269       C  0.94617030  0.75314409  0.56745965     0.70400
O2270       O  0.96385414  0.75540662  0.58466631    -0.46500
C2271       C  0.93366250  0.67663666  0.60513996     0.75100
O2272       O  0.97157956  0.74500974  0.63374548    -0.58300
O2273       O  0.91042843  0.69066071  0.60765706    -0.48400
O2274       O  0.93372743  0.72764241  0.65026882    -0.54800
C2275       C  0.89324392  0.77325371  0.61865252     0.85300
O2276       O  0.92351527  0.73897574  0.57212457    -0.56700
O2277       O  0.95642536  0.69181444  0.60522442    -0.60000
In2278     In  0.95411902  0.86438007  0.36053647     1.36900
C2279       C  0.95966591  0.84000752  0.40319921     0.77700
O2280       O  0.99992781  0.87858716  0.36640517    -0.60700
O2281       O  0.96730614  0.91105679  0.36554760    -0.51600
C2282       C  0.96726574  0.85273807  0.31513150     0.70400
O2283       O  0.97236770  0.83498135  0.33191096    -0.46500
C2284       C  0.89675437  0.86200621  0.35739559     0.75100
O2285       O  0.96760128  0.82724414  0.38422521    -0.58300
O2286       O  0.91040190  0.88575956  0.35884876    -0.48400
O2287       O  0.94858428  0.86459897  0.39987567    -0.54800
C2288       C  0.99392712  0.90513994  0.36768489     0.85300
O2289       O  0.95496931  0.87556747  0.32191569    -0.56700
O2290       O  0.91244099  0.83968976  0.35757121    -0.60000
In2291     In  0.57979818  0.98257255  0.10163373     1.36900
C2292       C  0.56501397  0.98998643  0.14701945     0.77700
O2293       O  0.55915429  0.93848285  0.10115445    -0.60700
O2294       O  0.60507287  0.94080873  0.10027726    -0.51600
C2295       C  0.55394092  0.49754850  0.06131438     0.70400
O2296       O  0.54193076  0.49993119  0.08149296    -0.46500
C2297       C  0.61952250  0.52391535  0.10110220     0.75100
O2298       O  0.54710711  0.99362145  0.13017387    -0.58300
O2299       O  0.62583677  0.49760680  0.09774060    -0.48400
O2300       O  0.58977037  0.98215482  0.14026263    -0.54800
C2301       C  0.58279604  0.92493643  0.10118853     0.85300
O2302       O  0.57856156  0.98603857  0.06192137    -0.56700
O2303       O  0.59299898  0.52897020  0.10402439    -0.60000
In2304     In  0.96422920  0.60810859  0.86767919     1.36900
C2305       C  0.96547372  0.59194718  0.82253673     0.77700
O2306       O  0.92136941  0.58605238  0.87050906    -0.60700
O2307       O  0.92222822  0.63222202  0.87003006    -0.51600
C2308       C  0.97993037  0.58381358  0.90826893     0.70400
O2309       O  0.98059456  0.57032455  0.88859147    -0.46500
C2310       C  0.00541542  0.64795103  0.86613849     0.75100
O2311       O  0.97533853  0.57597286  0.83899822    -0.58300
O2312       O  0.97941298  0.65410217  0.87093605    -0.48400
O2313       O  0.95593731  0.61613733  0.82921597    -0.54800
C2314       C  0.90717515  0.60931380  0.87014377     0.85300
O2315       O  0.96947826  0.60897789  0.90722975    -0.56700
O2316       O  0.50932792  0.62104349  0.86112340    -0.60000
In2317     In  0.81863748  0.60826705  0.86383660     1.36900
C2318       C  0.81485107  0.58575624  0.82049372     0.77700
O2319       O  0.77285813  0.62100581  0.85696560    -0.60700
O2320       O  0.80447265  0.65447662  0.86120987    -0.51600
C2321       C  0.80166724  0.59222949  0.90705888     0.70400
O2322       O  0.80105078  0.57509605  0.88944597    -0.46500
C2323       C  0.87558465  0.60936715  0.86872095     0.75100
O2324       O  0.80829910  0.57149543  0.83908511    -0.58300
O2325       O  0.86092853  0.63226117  0.86663272    -0.48400
O2326       O  0.82374883  0.61113013  0.82449543    -0.54800
C2327       C  0.77824978  0.64777705  0.85749526     0.85300
O2328       O  0.81242584  0.61673165  0.90244512    -0.56700
O2329       O  0.86109394  0.58618586  0.86856882    -0.60000
In2330     In  0.68151418  0.58658888  0.11093142     1.36900
C2331       C  0.71045988  0.58427316  0.07005994     0.77700
O2332       O  0.66809233  0.54116035  0.10271335    -0.60700
O2333       O  0.63515306  0.57311985  0.10584437    -0.51600
C2334       C  0.69226621  0.56782073  0.15458153     0.70400
O2335       O  0.71098797  0.56632172  0.13813841    -0.46500
C2336       C  0.68132226  0.64348242  0.11812722     0.75100
O2337       O  0.72104192  0.57563757  0.08965628    -0.58300
O2338       O  0.65866334  0.62973358  0.11227606    -0.48400
O2339       O  0.68512190  0.59425352  0.07172836    -0.54800
C2340       C  0.64143466  0.54673070  0.10285592     0.85300
O2341       O  0.66902766  0.58002009  0.14864805    -0.56700
O2342       O  0.70364871  0.62812292  0.12045358    -0.60000
In2343     In  0.70596868  0.96126538  0.36244972     1.36900
C2344       C  0.71164992  0.98534652  0.31989576     0.77700
O2345       O  0.75172853  0.94647862  0.35821738    -0.60700
O2346       O  0.71842683  0.91446151  0.35882305    -0.51600
C2347       C  0.72041724  0.97761143  0.40623600     0.70400
O2348       O  0.72782914  0.99210345  0.38804904    -0.46500
C2349       C  0.64858169  0.96204637  0.36598134     0.75100
O2350       O  0.71613512  0.49996472  0.33879124    -0.58300
O2351       O  0.66266805  0.93862215  0.36640355    -0.48400
O2352       O  0.70328689  0.95953138  0.32280747    -0.54800
C2353       C  0.74520296  0.92000010  0.35735505     0.85300
O2354       O  0.70537165  0.95544351  0.40185166    -0.56700
O2355       O  0.66379165  0.98457222  0.36350270    -0.60000
In2356     In  0.83687841  0.98383706  0.61058544     1.36900
C2357       C  0.80690357  0.98365839  0.57025113     0.77700
O2358       O  0.84853569  0.53011635  0.60507720    -0.60700
O2359       O  0.88269114  0.99785253  0.60365574    -0.51600
C2360       C  0.82821956  0.00151936  0.65484112     0.70400
O2361       O  0.80895701  0.00418010  0.63883513    -0.46500
C2362       C  0.83753780  0.92718497  0.61805675     0.75100
O2363       O  0.79654936  0.99352109  0.58952520    -0.58300
O2364       O  0.86019048  0.94106465  0.61243734    -0.48400
O2365       O  0.83266485  0.97480326  0.57162022    -0.54800
C2366       C  0.87500670  0.52415329  0.60299544     0.85300
O2367       O  0.85068645  0.98852784  0.64814894    -0.56700
O2368       O  0.81500324  0.94231933  0.62003023    -0.60000
C2369       C  0.72364036  0.98144787  0.47379212    -0.22300
C2370       C  0.75327609  0.98631094  0.47727379     0.09700
C2371       C  0.77138550  0.99146088  0.45741387     0.10100
C2372       C  0.75950424  0.99077065  0.43429575    -0.17200
C2373       C  0.73007143  0.98451367  0.43070103    -0.27600
C2374       C  0.71169369  0.98077280  0.45072500     0.18400
C2375       C  0.76504471  0.98540878  0.50186695     0.12400
C2376       C  0.80255700  0.49839863  0.45995354    -0.12000
H2377       H  0.77252884  0.49518486  0.41838026     0.12700
C2378       C  0.67941716  0.97647435  0.44849158    -0.22800
H2379       H  0.70978413  0.97800982  0.48918181     0.08300
C2380       C  0.76460588  0.00998016  0.51682396     0.04600
C2381       C  0.77723876  0.00838902  0.53965642    -0.20100
C2382       C  0.79052739  0.98285907  0.54761301    -0.12300
C2383       C  0.78969178  0.95780512  0.53298803     0.13300
C2384       C  0.77712623  0.95952093  0.51018306    -0.22800
C2385       C  0.75322864  0.53963110  0.50710412    -0.05800
H2386       H  0.77916413  0.52895626  0.54980472     0.14900
C2387       C  0.80108394  0.92877275  0.54099300    -0.16000
H2388       H  0.77682454  0.94054053  0.49873896     0.09200
H2389       H  0.66813089  0.99299395  0.45945148     0.07000
H2390       H  0.67341009  0.95461723  0.45515397     0.08200
H2391       H  0.67139079  0.97890656  0.42990414     0.07300
H2392       H  0.81353601  0.97788669  0.46935179     0.02200
H2393       H  0.80598890  0.51781392  0.47133180     0.02700
H2394       H  0.81344835  0.50221117  0.44252333     0.06200
H2395       H  0.75561230  0.55704046  0.52068450     0.05100
H2396       H  0.72984128  0.53704753  0.50296913    -0.00600
H2397       H  0.76480641  0.54653840  0.49066172     0.00800
H2398       H  0.78355440  0.91231139  0.53963669     0.04500
H2399       H  0.80872125  0.92865937  0.55979423     0.06400
H2400       H  0.81922735  0.92212368  0.52923171     0.07300
C2401       C  0.67960593  0.53639266  0.21649398    -0.22300
C2402       C  0.70792719  0.53533199  0.22530400     0.09700
C2403       C  0.73120579  0.54423515  0.21076353     0.10100
C2404       C  0.72550037  0.55437264  0.18757583    -0.17200
C2405       C  0.69702504  0.55619080  0.17886544    -0.27600
C2406       C  0.67372393  0.54680923  0.19348937     0.18400
C2407       C  0.71231287  0.52430873  0.24980202     0.12400
C2408       C  0.76188104  0.54355837  0.21989941    -0.12000
H2409       H  0.74332366  0.56145085  0.17637562     0.12700
C2410       C  0.64268419  0.54700352  0.18499181    -0.22800
H2411       H  0.66199160  0.52914448  0.22784445     0.08300
C2412       C  0.70559267  0.54130756  0.26998355     0.04600
C2413       C  0.70654223  0.52865817  0.29278601    -0.20100
C2414       C  0.71423907  0.49949454  0.29573865    -0.12300
C2415       C  0.72336112  0.98217586  0.27571300     0.13300
C2416       C  0.72133358  0.49566596  0.25277613    -0.22800
C2417       C  0.69718192  0.57264007  0.26736767    -0.05800
H2418       H  0.70023297  0.54129139  0.30826114     0.14900
C2419       C  0.73642922  0.95235860  0.27741396    -0.16000
H2420       H  0.72657468  0.98176788  0.23726433     0.09200
H2421       H  0.63547489  0.56955012  0.18176959     0.07000
H2422       H  0.62778848  0.53760543  0.19849887     0.08200
H2423       H  0.64053502  0.53407425  0.16831311     0.07300
H2424       H  0.76802547  0.52099903  0.22440328     0.02200
H2425       H  0.76378182  0.55724910  0.23616738     0.02700
H2426       H  0.77743142  0.55185620  0.20637049     0.06200
H2427       H  0.69311813  0.58293376  0.28500185     0.05100
H2428       H  0.67713647  0.57445044  0.25650005    -0.00600
H2429       H  0.71491395  0.58475960  0.25839456     0.00800
H2430       H  0.72161646  0.93626851  0.26906867     0.04500
H2431       H  0.74130303  0.94561107  0.29599056     0.06400
H2432       H  0.75736234  0.95211480  0.26766461     0.07300
C2433       C  0.75716302  0.56306082  0.95958693    -0.22300
C2434       C  0.76703724  0.58141011  0.97782006     0.09700
C2435       C  0.78957587  0.60117428  0.97320561     0.10100
C2436       C  0.80128326  0.60264935  0.95018378    -0.17200
C2437       C  0.79054459  0.58544350  0.93131556    -0.27600
C2438       C  0.76814700  0.56501223  0.93621450     0.18400
C2439       C  0.75209316  0.58121286  0.00117066     0.12400
C2440       C  0.80045061  0.62155497  0.99232699    -0.12000
H2441       H  0.81844916  0.61820698  0.94674471     0.12700
C2442       C  0.75371278  0.54589090  0.91774911    -0.22800
H2443       H  0.73970879  0.54796809  0.96340909     0.08300
C2444       C  0.72511264  0.59487579  0.00405621     0.04600
C2445       C  0.71219022  0.59520698  0.02668911    -0.20100
C2446       C  0.72589510  0.58292964  0.04676500    -0.12300
C2447       C  0.75348086  0.56991814  0.04385596     0.13300
C2448       C  0.76593401  0.56885690  0.02096623    -0.22800
C2449       C  0.71034237  0.60984812  0.98341083    -0.05800
H2450       H  0.69131948  0.60558010  0.02870301     0.14900
C2451       C  0.77026559  0.55745517  0.06456416    -0.16000
H2452       H  0.78691561  0.55884346  0.01850288     0.09200
H2453       H  0.73002439  0.54992653  0.91788052     0.07000
H2454       H  0.75746408  0.52283713  0.92242548     0.08200
H2455       H  0.76087868  0.54922615  0.89920452     0.07300
H2456       H  0.80970633  0.60902833  0.00743958     0.02200
H2457       H  0.78232251  0.63503792  0.99897496     0.02700
H2458       H  0.81757906  0.63630935  0.98547104     0.06200
H2459       H  0.68970345  0.62010407  0.98894993     0.05100
H2460       H  0.70535337  0.59397846  0.96906119    -0.00600
H2461       H  0.72470517  0.62707098  0.97616160     0.00800
H2462       H  0.79144717  0.54855795  0.05879892     0.04500
H2463       H  0.75779649  0.53954166  0.07292579     0.06400
H2464       H  0.77473960  0.57465028  0.07797527     0.07300
C2465       C  0.84141264  0.52720326  0.71874324    -0.22300
C2466       C  0.81367833  0.53459606  0.72646123     0.09700
C2467       C  0.79305441  0.03069552  0.71092323     0.10100
C2468       C  0.79718987  0.01928464  0.68791758    -0.17200
C2469       C  0.82509600  0.01314093  0.67936134    -0.27600
C2470       C  0.84604952  0.51585806  0.69585169     0.18400
C2471       C  0.81081139  0.54748286  0.75046653     0.12400
C2472       C  0.76290809  0.03700284  0.71963881    -0.12000
H2473       H  0.77855128  0.01503065  0.67664126     0.12700
C2474       C  0.87680027  0.50932142  0.68858928    -0.22800
H2475       H  0.85960764  0.53066468  0.73073279     0.08300
C2476       C  0.80914580  0.53008829  0.77111002     0.04600
C2477       C  0.80995593  0.54329352  0.79366855    -0.20100
C2478       C  0.81261883  0.57347979  0.79605924    -0.12300
C2479       C  0.81331075  0.59096391  0.77512839     0.13300
C2480       C  0.81246651  0.57759249  0.75262035    -0.22800
C2481       C  0.80685356  0.49762112  0.76925322    -0.05800
H2482       H  0.80913983  0.52979543  0.80957325     0.14900
C2483       C  0.81476254  0.62359132  0.77609969    -0.16000
H2484       H  0.81375384  0.59065594  0.73648449     0.09200
H2485       H  0.87924975  0.48580335  0.68509975     0.07000
H2486       H  0.89253595  0.51519180  0.70284773     0.08200
H2487       H  0.88263544  0.52196064  0.67237716     0.07300
H2488       H  0.76097414  0.06036223  0.72401924     0.02200
H2489       H  0.75826861  0.02402555  0.73591653     0.02700
H2490       H  0.74631889  0.03159837  0.70591494     0.06200
H2491       H  0.80563945  0.48724185  0.78716187     0.05100
H2492       H  0.82608336  0.48891507  0.75984323    -0.00600
H2493       H  0.79361207  0.99160473  0.75790466     0.00800
H2494       H  0.83552557  0.63066254  0.78428603     0.04500
H2495       H  0.79626463  0.63208564  0.78660562     0.06400
H2496       H  0.81363363  0.63340861  0.75796471     0.07300
C2497       C  0.51557682  0.57307566  0.96853789    -0.22300
C2498       C  0.50909366  0.54396916  0.97295834     0.09700
C2499       C  0.49263261  0.52794829  0.95630674     0.10100
C2500       C  0.98490370  0.54172181  0.93510807    -0.17200
C2501       C  0.99073444  0.57109501  0.93071208    -0.27600
C2502       C  0.50658625  0.58663020  0.94742493     0.18400
C2503       C  0.52031443  0.53073993  0.99507151     0.12400
C2504       C  0.48550593  0.49651967  0.96057713    -0.12000
H2505       H  0.97272267  0.52927237  0.92203523     0.12700
C2506       C  0.51708972  0.61722902  0.94330531    -0.22800
H2507       H  0.52851890  0.58507919  0.98141333     0.08300
C2508       C  0.54945261  0.52223750  0.99702122     0.04600
C2509       C  0.55942516  0.51090124  0.01872670    -0.20100
C2510       C  0.54109928  0.50837061  0.03871205    -0.12300
C2511       C  0.51179744  0.51717277  0.03664978     0.13300
C2512       C  0.50178862  0.52800549  0.01470672    -0.22800
C2513       C  0.57001629  0.52523836  0.97623857    -0.05800
H2514       H  0.58192500  0.50455245  0.02017496     0.14900
C2515       C  0.49086896  0.51543690  0.05726316    -0.16000
H2516       H  0.97996939  0.53391090  0.01276573     0.09200
H2517       H  0.54101951  0.61797887  0.94525373     0.07000
H2518       H  0.00607074  0.63264233  0.95676556     0.08200
H2519       H  0.01266657  0.62631401  0.92539685     0.07300
H2520       H  0.97513093  0.49375743  0.97664127     0.02200
H2521       H  0.50581898  0.48391324  0.96230230     0.02700
H2522       H  0.97421266  0.98791098  0.94516672     0.06200
H2523       H  0.59199858  0.51722719  0.98076420     0.05100
H2524       H  0.57202263  0.54834877  0.97101938    -0.00600
H2525       H  0.56177348  0.51256164  0.96076021     0.00800
H2526       H  0.99766067  0.52770556  0.07192652     0.04500
H2527       H  0.48935908  0.49278876  0.06381167     0.06400
H2528       H  0.96896183  0.51956317  0.05141498     0.07300
C2529       C  0.93258165  0.78943123  0.50766872    -0.22300
C2530       C  0.96001185  0.78802680  0.49717774     0.09700
C2531       C  0.98354414  0.77696981  0.51044488     0.10100
C2532       C  0.97860984  0.76596794  0.53356840    -0.17200
C2533       C  0.95087147  0.76660328  0.54381774    -0.27600
C2534       C  0.92781913  0.77971097  0.53104237     0.18400
C2535       C  0.96349254  0.80055350  0.47297488     0.12400
C2536       C  0.51346647  0.78039894  0.50152184    -0.12000
H2537       H  0.99640689  0.75665514  0.54361218     0.12700
C2538       C  0.89834173  0.78537185  0.54172007    -0.22800
H2539       H  0.91485658  0.79912787  0.49773595     0.08300
C2540       C  0.96251071  0.78329021  0.45215456     0.04600
C2541       C  0.96271036  0.79674503  0.42958381    -0.20100
C2542       C  0.96246519  0.82707559  0.42741945    -0.12300
C2543       C  0.96370892  0.84429857  0.44845833     0.13300
C2544       C  0.96446986  0.83073385  0.47090835    -0.22800
C2545       C  0.95963135  0.75082620  0.45371355    -0.05800
H2546       H  0.96161338  0.78353158  0.41360968     0.14900
C2547       C  0.96430662  0.87695535  0.44764204    -0.16000
H2548       H  0.96485377  0.84372548  0.48704311     0.09200
H2549       H  0.88182510  0.77183860  0.53250344     0.07000
H2550       H  0.89267141  0.80852842  0.53918229     0.08200
H2551       H  0.89721988  0.78135535  0.56121450     0.07300
H2552       H  0.51925317  0.80325392  0.49754651     0.02200
H2553       H  0.51535741  0.76746786  0.48489700     0.02700
H2554       H  0.52936958  0.77190333  0.51467501     0.06200
H2555       H  0.95874175  0.74068633  0.43570374     0.05100
H2556       H  0.93940638  0.74509724  0.46335037    -0.00600
H2557       H  0.97830837  0.74148877  0.46344312     0.00800
H2558       H  0.94357052  0.88525658  0.44036547     0.04500
H2559       H  0.98262140  0.88447084  0.43635979     0.06400
H2560       H  0.96713807  0.88654379  0.46573190     0.07300
C2561       C  0.50049721  0.76867860  0.70709078    -0.22300
C2562       C  0.49871452  0.74483143  0.72252442     0.09700
C2563       C  0.98158640  0.71873118  0.71570328     0.10100
C2564       C  0.96890413  0.71789505  0.69291762    -0.17200
C2565       C  0.97227569  0.74093214  0.67678562    -0.27600
C2566       C  0.48742917  0.76801755  0.68436050     0.18400
C2567       C  0.51321255  0.74599582  0.74614567     0.12400
C2568       C  0.97773448  0.69335210  0.73238431    -0.12000
H2569       H  0.95658194  0.69897092  0.68752782     0.12700
C2570       C  0.48821878  0.79545057  0.66972758    -0.22800
H2571       H  0.51179618  0.78804005  0.71295716     0.08300
C2572       C  0.54214492  0.73704429  0.74884414     0.04600
C2573       C  0.55365128  0.73373023  0.77190749    -0.20100
C2574       C  0.53681531  0.73890519  0.79234988    -0.12300
C2575       C  0.50806946  0.74913084  0.78958547     0.13300
C2576       C  0.49681928  0.75285861  0.76641923    -0.22800
C2577       C  0.56042099  0.72978692  0.72738564    -0.05800
H2578       H  0.57560567  0.72591276  0.77402295     0.14900
C2579       C  0.48772833  0.75425655  0.81023346    -0.16000
H2580       H  0.97506148  0.76038664  0.76400686     0.09200
H2581       H  0.51098530  0.80094951  0.66524238     0.07000
H2582       H  0.47886657  0.81344523  0.68035307     0.08200
H2583       H  0.47557913  0.79407695  0.65292772     0.07300
H2584       H  0.96671741  0.70052299  0.74898674     0.02200
H2585       H  0.99917124  0.68414577  0.73707098     0.02700
H2586       H  0.96444800  0.67588972  0.72413976     0.06200
H2587       H  0.58256094  0.72295593  0.73265454     0.05100
H2588       H  0.56236904  0.74907749  0.71563353    -0.00600
H2589       H  0.55023131  0.71181138  0.71716026     0.00800
H2590       H  0.48063018  0.77719849  0.81012088     0.04500
H2591       H  0.49722015  0.74957783  0.82795782     0.06400
H2592       H  0.96877248  0.74331756  0.80861427     0.07300
C2593       C  0.56829062  0.81263136  0.99806167    -0.22300
C2594       C  0.56322022  0.78290604  0.99526639     0.09700
C2595       C  0.55830124  0.76550114  0.01561636     0.10100
C2596       C  0.55954910  0.77812448  0.03848104    -0.17200
C2597       C  0.56572595  0.80771438  0.04137191    -0.27600
C2598       C  0.56929066  0.82536620  0.02083921     0.18400
C2599       C  0.56421873  0.77037186  0.97088026     0.12400
C2600       C  0.55203026  0.73361210  0.01315461    -0.12000
H2601       H  0.55682751  0.76462533  0.05419165     0.12700
C2602       C  0.57348654  0.85773009  0.02215191    -0.22800
H2603       H  0.57161536  0.82597698  0.98232876     0.08300
C2604       C  0.54060434  0.77257911  0.95496428     0.04600
C2605       C  0.54297180  0.76090239  0.93186397    -0.20100
C2606       C  0.56840430  0.74708140  0.92434994    -0.12300
C2607       C  0.59236290  0.74550525  0.94018485     0.10100
C2608       C  0.58975097  0.75686782  0.96336584    -0.22800
C2609       C  0.51283267  0.78688090  0.96249113    -0.05800
H2610       H  0.52466515  0.76210069  0.91973037     0.14900
C2611       C  0.62138325  0.73330915  0.93310987    -0.16000
H2612       H  0.60801230  0.75572893  0.97555883     0.09200
H2613       H  0.55650716  0.86853061  0.01128871     0.07000
H2614       H  0.59504142  0.86360666  0.01481338     0.08200
H2615       H  0.57174464  0.86644265  0.04055440     0.07300
H2616       H  0.57049715  0.72266942  0.00431801     0.02200
H2617       H  0.53219682  0.73039910  0.00219384     0.02700
H2618       H  0.54852644  0.72318358  0.03083173     0.06200
H2619       H  0.99696477  0.78676887  0.94903476     0.05100
H2620       H  0.51703880  0.80988542  0.96713396    -0.00600
H2621       H  0.50378140  0.77553921  0.97833856     0.00800
H2622       H  0.63854956  0.74971507  0.93654910     0.04500
H2623       H  0.62283071  0.72752421  0.91393412     0.06400
H2624       H  0.62606775  0.71377345  0.94400330     0.07300
C2625       C  0.54496966  0.84586454  0.21947992    -0.22300
C2626       C  0.51547699  0.83893563  0.22061683     0.09700
C2627       C  0.00065906  0.82888023  0.19923748     0.10100
C2628       C  0.51572858  0.82955083  0.17784331    -0.17200
C2629       C  0.54532389  0.83676461  0.17641977    -0.27600
C2630       C  0.56020620  0.84478545  0.19775734     0.18400
C2631       C  0.99974850  0.83946428  0.24361911     0.12400
C2632       C  0.96926801  0.81999064  0.19965742    -0.12000
H2633       H  0.00481380  0.82173514  0.16140625     0.12700
C2634       C  0.59203416  0.85223108  0.19813867    -0.22800
H2635       H  0.55606575  0.85223543  0.23575546     0.08300
C2636       C  0.50390747  0.81952684  0.26174805     0.04600
C2637       C  0.99112107  0.82228647  0.28410524    -0.20100
C2638       C  0.97608019  0.84781126  0.28978066    -0.12300
C2639       C  0.97128352  0.86858757  0.27136355     0.13300
C2640       C  0.98343683  0.86414948  0.24864277    -0.22800
C2641       C  0.51992207  0.79193411  0.25643107    -0.05800
H2642       H  0.99435771  0.80597013  0.29777725     0.14900
C2643       C  0.95377641  0.89568905  0.27524315    -0.16000
H2644       H  0.98084653  0.88041253  0.23479411     0.09200
H2645       H  0.59978791  0.85747400  0.21647352     0.07000
H2646       H  0.59621780  0.87150137  0.18676560     0.08200
H2647       H  0.60483681  0.83352174  0.19164059     0.07300
H2648       H  0.95579335  0.83841216  0.20574065     0.02200
H2649       H  0.96628666  0.80148732  0.21211221     0.02700
H2650       H  0.96148647  0.81323873  0.18167517     0.06200
H2651       H  0.52003438  0.77707125  0.27205618     0.05100
H2652       H  0.54272116  0.79691270  0.25167978    -0.00600
H2653       H  0.50935068  0.78055423  0.24121827     0.00800
H2654       H  0.96446594  0.90976783  0.28873124     0.04500
H2655       H  0.93160578  0.88983592  0.28123934     0.06400
H2656       H  0.95161676  0.90860415  0.25856411     0.07300
C2657       C  0.52604570  0.49715412  0.20670759    -0.22300
C2658       C  0.54956846  0.99752226  0.22252609     0.09700
C2659       C  0.57753440  0.99233255  0.21360141     0.10100
C2660       C  0.58165664  0.99079046  0.18891670    -0.17200
C2661       C  0.55852590  0.99421043  0.17277028    -0.27600
C2662       C  0.53009792  0.49558963  0.18183486     0.18400
C2663       C  0.54393506  0.99477743  0.24832667     0.12400
C2664       C  0.60293815  0.98753740  0.23015674    -0.12000
H2665       H  0.60318570  0.98622872  0.18227302     0.12700
C2666       C  0.50387053  0.49655468  0.16579921    -0.22800
H2667       H  0.50440273  0.49867569  0.21401352     0.08300
C2668       C  0.54816339  0.01809840  0.26419997     0.04600
C2669       C  0.54864854  0.01267680  0.28889299    -0.20100
C2670       C  0.54553229  0.98439345  0.29780051    -0.12300
C2671       C  0.53915720  0.96139355  0.28176318     0.13300
C2672       C  0.53829477  0.96704346  0.25720199    -0.22800
C2673       C  0.55299792  0.04836548  0.25497531    -0.05800
H2674       H  0.55295840  0.03037611  0.30119568     0.14900
C2675       C  0.53346816  0.93081030  0.29015319    -0.16000
H2676       H  0.53482989  0.94937724  0.24467857     0.09200
H2677       H  0.48352981  0.49872908  0.17620885     0.07000
H2678       H  0.50231365  0.47625230  0.15522656     0.08200
H2679       H  0.50539097  0.51546149  0.15359438     0.07300
H2680       H  0.59881475  0.96842425  0.24172068     0.02200
H2681       H  0.60632738  0.00690571  0.24159214     0.02700
H2682       H  0.62327418  0.98357986  0.22012004     0.06200
H2683       H  0.55579164  0.06413961  0.26981973     0.05100
H2684       H  0.52848567  0.55150138  0.24313504    -0.00600
H2685       H  0.57271890  0.04913125  0.24367819     0.00800
H2686       H  0.02280416  0.91652673  0.27561788     0.04500
H2687       H  0.51600116  0.93071291  0.30377795     0.06400
H2688       H  0.55346765  0.92132197  0.29781149     0.07300
C2689       C  0.97683717  0.59990194  0.70909548    -0.22300
C2690       C  0.96955638  0.57436718  0.72122740     0.09700
C2691       C  0.96102355  0.54956775  0.70826198     0.10100
C2692       C  0.95830098  0.55140547  0.68330497    -0.17200
C2693       C  0.96436706  0.57736577  0.67128658    -0.27600
C2694       C  0.97446735  0.60169867  0.68418225     0.18400
C2695       C  0.96846161  0.57521023  0.74756700     0.12400
C2696       C  0.95432529  0.52149746  0.72083182    -0.12000
H2697       H  0.95035062  0.53292741  0.67324426     0.12700
C2698       C  0.98181265  0.63014368  0.67236888    -0.22800
H2699       H  0.98346208  0.61885192  0.71922622     0.08300
C2700       C  0.99363482  0.57250951  0.76165086     0.04600
C2701       C  0.99171664  0.57640913  0.78648700    -0.20100
C2702       C  0.96530121  0.58356225  0.79724358    -0.12300
C2703       C  0.93987199  0.58537920  0.78315613     0.13300
C2704       C  0.94184014  0.58113521  0.75842521    -0.22800
C2705       C  0.02248788  0.56616219  0.75036896    -0.05800
H2706       H  0.01111008  0.57522081  0.79739755     0.14900
C2707       C  0.91036278  0.59156239  0.79351657    -0.16000
H2708       H  0.92256083  0.58308151  0.74742200     0.09200
H2709       H  0.49549064  0.64089319  0.67886878     0.07000
H2710       H  0.96726717  0.64726454  0.67927654     0.08200
H2711       H  0.97962577  0.62946913  0.65262172     0.07300
H2712       H  0.93600466  0.52453514  0.73339563     0.02200
H2713       H  0.97364635  0.51425502  0.73101926     0.02700
H2714       H  0.94832694  0.50413174  0.70796913     0.06200
H2715       H  0.53748077  0.56416503  0.76335562     0.05100
H2716       H  0.52510490  0.58343860  0.73733055    -0.00600
H2717       H  0.02135687  0.54520947  0.74066794     0.00800
H2718       H  0.90206031  0.61226939  0.78615105     0.04500
H2719       H  0.91036300  0.59299721  0.81330567     0.06400
H2720       H  0.89514305  0.57388381  0.78850004     0.07300
C2721       C  0.97660931  0.55871819  0.49461261    -0.22300
C2722       C  0.00607276  0.55189442  0.49516043     0.09700
C2723       C  0.52118687  0.55445854  0.51692701     0.10100
C2724       C  0.00761264  0.56510387  0.53714480    -0.17200
C2725       C  0.97767374  0.57063389  0.53705894    -0.27600
C2726       C  0.96214926  0.56830658  0.51517456     0.18400
C2727       C  0.01899406  0.53849467  0.47366223     0.12400
C2728       C  0.55224749  0.54484469  0.51854363    -0.12000
H2729       H  0.51858498  0.56467052  0.55437074     0.12700
C2730       C  0.93030815  0.57499021  0.51328097    -0.22800
H2731       H  0.96465905  0.55573170  0.47800125     0.08300
C2732       C  0.51726796  0.00973244  0.46986856     0.04600
C2733       C  0.52767145  0.99691833  0.44889642    -0.20100
C2734       C  0.54175672  0.01329158  0.43119774    -0.12300
C2735       C  0.54414056  0.54291010  0.43564574     0.13300
C2736       C  0.53339871  0.55545586  0.45677217    -0.22800
C2737       C  0.99867623  0.99068576  0.48780222    -0.05800
H2738       H  0.52380711  0.97402797  0.44591415     0.14900
C2739       C  0.56125328  0.56219744  0.41907572    -0.16000
H2740       H  0.53686797  0.57837012  0.46011838     0.09200
H2741       H  0.92196302  0.57163790  0.49481340     0.07000
H2742       H  0.92647499  0.59799302  0.51803355     0.08200
H2743       H  0.91778822  0.56058336  0.52537419     0.07300
H2744       H  0.56574776  0.55806340  0.50623792     0.02200
H2745       H  0.55397206  0.52169133  0.51343746     0.02700
H2746       H  0.56103713  0.54736957  0.53694674     0.06200
H2747       H  0.99638317  0.96785500  0.48181927     0.05100
H2748       H  0.97662882  0.99975152  0.49006841    -0.00600
H2749       H  0.51192541  0.99184416  0.50523987     0.00800
H2750       H  0.54703818  0.57956905  0.41201782     0.04500
H2751       H  0.57101203  0.55056265  0.40383680     0.06400
H2752       H  0.57936073  0.57237187  0.42917897     0.07300
C2753       C  0.76112728  0.77703055  0.26886715    -0.22300
C2754       C  0.76403389  0.79330480  0.24786429     0.09700
C2755       C  0.77718579  0.82086024  0.24883723     0.10100
C2756       C  0.78691106  0.83169120  0.27092532    -0.17200
C2757       C  0.78365693  0.81576375  0.29225986    -0.27600
C2758       C  0.77067246  0.78782916  0.29108413     0.18400
C2759       C  0.75127797  0.78190423  0.22535767     0.12400
C2760       C  0.78056483  0.83901548  0.22659957    -0.12000
H2761       H  0.79673908  0.85302633  0.27150374     0.12700
C2762       C  0.76625007  0.76928662  0.31298385    -0.22800
H2763       H  0.75080172  0.75594756  0.26787931     0.08300
C2764       C  0.76732263  0.76481180  0.20924584     0.04600
C2765       C  0.75402468  0.75475768  0.18813422    -0.20100
C2766       C  0.72493884  0.76108782  0.18302343    -0.12300
C2767       C  0.70907058  0.77872123  0.19905889     0.13300
C2768       C  0.72240533  0.78856933  0.22013235    -0.22800
C2769       C  0.79829692  0.75696492  0.21449582    -0.05800
H2770       H  0.76620691  0.74147831  0.17577285     0.14900
C2771       C  0.67855574  0.78878528  0.19422995    -0.16000
H2772       H  0.71031353  0.80201595  0.23244546     0.09200
H2773       H  0.75595137  0.74818539  0.30851278     0.07000
H2774       H  0.75184832  0.78052532  0.32583629     0.08200
H2775       H  0.78744400  0.76465339  0.32153461     0.07300
H2776       H  0.75898297  0.84339135  0.21864194     0.02200
H2777       H  0.79405563  0.82738977  0.21332733     0.02700
H2778       H  0.79114694  0.86013795  0.23050936     0.06200
H2779       H  0.80770346  0.74340838  0.20007602     0.05100
H2780       H  0.79944772  0.74460681  0.23151418    -0.00600
H2781       H  0.81163814  0.77689892  0.21618092     0.00800
H2782       H  0.66381288  0.77987679  0.20809072     0.04500
H2783       H  0.67020416  0.78253376  0.17639118     0.06400
H2784       H  0.67785014  0.81280094  0.19505222     0.07300
C2785       C  0.77914153  0.81692760  0.51788624    -0.22300
C2786       C  0.79953568  0.82830094  0.50190689     0.09700
C2787       C  0.82507698  0.84133350  0.51056597     0.10100
C2788       C  0.82998178  0.84225324  0.53516316    -0.17200
C2789       C  0.80981393  0.83080540  0.55146129    -0.27600
C2790       C  0.78391924  0.81801100  0.54271542     0.18400
C2791       C  0.79361100  0.82777927  0.47605579     0.12400
C2792       C  0.84702603  0.85469185  0.49386369    -0.12000
H2793       H  0.84970923  0.85233420  0.54164342     0.12700
C2794       C  0.76143266  0.80523968  0.55916073    -0.22800
H2795       H  0.75946012  0.80727738  0.51086276     0.08300
C2796       C  0.80569664  0.80643096  0.46111445     0.04600
C2797       C  0.80479798  0.81033940  0.43622198    -0.20100
C2798       C  0.79225489  0.83522076  0.42627633    -0.12300
C2799       C  0.77783150  0.85519265  0.44131592     0.13300
C2800       C  0.77900312  0.85133101  0.46610107    -0.22800
C2801       C  0.82046564  0.78025621  0.47153960    -0.05800
H2802       H  0.81551147  0.79492866  0.42463674     0.14900
C2803       C  0.76112231  0.88084645  0.43196252    -0.16000
H2804       H  0.76943939  0.86740572  0.47778759     0.09200
H2805       H  0.77122480  0.78779575  0.57015801     0.07000
H2806       H  0.74301693  0.79566746  0.54904085     0.08200
H2807       H  0.75257987  0.82236332  0.57097575     0.07300
H2808       H  0.83674367  0.87226515  0.48333216     0.02200
H2809       H  0.85552605  0.83803981  0.48144472     0.02700
H2810       H  0.86569577  0.86414814  0.50373921     0.06200
H2811       H  0.82883316  0.76570936  0.45734522     0.05100
H2812       H  0.80481437  0.76781889  0.48260027    -0.00600
H2813       H  0.83898798  0.78702006  0.48295586     0.00800
H2814       H  0.73883444  0.88035213  0.43937546     0.04500
H2815       H  0.75890439  0.88093637  0.41222129     0.06400
H2816       H  0.77188924  0.90123857  0.43772282     0.07300
C2817       C  0.73535107  0.74861811  0.96053449    -0.22300
C2818       C  0.71722921  0.73101434  0.97441396     0.09700
C2819       C  0.69881849  0.71065773  0.96338712     0.10100
C2820       C  0.69914346  0.70810240  0.93852735    -0.17200
C2821       C  0.71717450  0.72565479  0.92432744    -0.27600
C2822       C  0.73559423  0.74624697  0.93548468     0.18400
C2823       C  0.71644725  0.73522245  0.00046190     0.12400
C2824       C  0.67848596  0.69193519  0.97781259    -0.12000
H2825       H  0.68485824  0.69241204  0.93014774     0.12700
C2826       C  0.75578641  0.76541443  0.92138762    -0.22800
H2827       H  0.74918745  0.76433524  0.96937997     0.08300
C2828       C  0.73349942  0.71840238  0.01607534     0.04600
C2829       C  0.72965475  0.72135134  0.04084331    -0.20100
C2830       C  0.70872035  0.74023742  0.05002485    -0.12300
C2831       C  0.69248666  0.75788908  0.03427610     0.13300
C2832       C  0.69658627  0.75508295  0.00962293    -0.22800
C2833       C  0.75492871  0.69675651  0.00656691    -0.05800
H2834       H  0.74180330  0.70770896  0.05300090     0.14900
C2835       C  0.67074623  0.77991355  0.04275035    -0.16000
H2836       H  0.68368204  0.76796575  0.99740304     0.09200
H2837       H  0.77086454  0.75191005  0.91074550     0.07000
H2838       H  0.76900122  0.77957260  0.93324508     0.08200
H2839       H  0.74313896  0.77965962  0.90929908     0.07300
H2840       H  0.66302784  0.70581268  0.98771827     0.02200
H2841       H  0.69090834  0.67866511  0.99077464     0.02700
H2842       H  0.66577344  0.67696683  0.96626634     0.06200
H2843       H  0.76641728  0.68534995  0.02126030     0.05100
H2844       H  0.77129940  0.70801989  0.99537368    -0.00600
H2845       H  0.74361749  0.68024052  0.99550933     0.00800
H2846       H  0.67627633  0.80145530  0.03515349     0.04500
H2847       H  0.67033684  0.78238062  0.06246579     0.06400
H2848       H  0.64875632  0.77362947  0.03651211     0.07300
C2849       C  0.76688649  0.75072780  0.75353968    -0.22300
C2850       C  0.76243559  0.78055433  0.75135502     0.09700
C2851       C  0.74726169  0.79565485  0.76922881     0.10100
C2852       C  0.73683063  0.78041522  0.78915523    -0.17200
C2853       C  0.74102782  0.75040886  0.79136565    -0.27600
C2854       C  0.75642548  0.73536853  0.77334476     0.18400
C2855       C  0.77360669  0.79521355  0.72983179     0.12400
C2856       C  0.74238805  0.82779813  0.76732124    -0.12000
H2857       H  0.72520627  0.79195011  0.80300117     0.12700
C2858       C  0.76283513  0.70342708  0.77512081    -0.22800
H2859       H  0.77868719  0.73947269  0.73962930     0.08300
C2860       C  0.80311765  0.80238922  0.72760925     0.04600
C2861       C  0.81324980  0.81348772  0.70586473    -0.20100
C2862       C  0.79460373  0.81726320  0.68617846    -0.12300
C2863       C  0.76467402  0.81101555  0.68884527     0.13300
C2864       C  0.75462790  0.80008580  0.71073461    -0.22800
C2865       C  0.82391774  0.79805873  0.74810179    -0.05800
H2866       H  0.83610674  0.81837440  0.70406935     0.14900
C2867       C  0.74310520  0.81559133  0.66893058    -0.16000
H2868       H  0.73193365  0.79452243  0.71282254     0.09200
H2869       H  0.77655666  0.69585752  0.76007942     0.07000
H2870       H  0.74237410  0.69077816  0.77452928     0.08200
H2871       H  0.77458832  0.69882700  0.79205237     0.07300
H2872       H  0.72960941  0.83266600  0.75097235     0.02200
H2873       H  0.76355041  0.83922117  0.76631633     0.02700
H2874       H  0.73038755  0.83631598  0.78300270     0.06200
H2875       H  0.84621120  0.80512614  0.74340961     0.05100
H2876       H  0.82472510  0.77480396  0.75305930    -0.00600
H2877       H  0.81670321  0.81085614  0.76380157     0.00800
H2878       H  0.72060359  0.81092048  0.67481489     0.04500
H2879       H  0.74788962  0.80086893  0.65376663     0.06400
H2880       H  0.74392640  0.83846459  0.66283949     0.07300
loop_ 
_geom_bond_atom_site_label_1 
_geom_bond_atom_site_label_2 
_geom_bond_distance 
_geom_bond_site_symmetry_2 
_ccdc_geom_bond_type 
In1           O3   2.228       .  S
In1           O4   2.260       .  S
In1          O12   2.219       .  S
In1           O6   2.239       .  S
In1           O8   2.247       .  S
In1           O9   2.241       .  S
In1          O10   2.198       .  S
In1          O13   2.233       .  S
C2            O8   1.265       .  A
C2           O10   1.259       .  A
C2          C661   1.477       .  S
O3           C11   1.261       .  A
O4           C11   1.265       .  A
C5           O12   1.262       .  A
C5            O6   1.265       .  A
C5          C693   1.477       .  S
C7            O9   1.266       .  A
C7           O13   1.260       .  A
C7          C167   1.461       .  S
C11          C98   1.467       .  S
In14         O16   2.228       .  S
In14         O17   2.254       .  S
In14         O25   2.225       .  S
In14         O19   2.229       .  S
In14         O21   2.247       .  S
In14         O22   2.238       .  S
In14         O23   2.196       .  S
In14         O26   2.238       .  S
C15          O21   1.264       .  A
C15          O23   1.259       .  A
C15         C629   1.478       .  S
O16          C24   1.260       .  A
O17          C24   1.263       .  A
C18          O25   1.263       .  A
C18          O19   1.263       .  A
C18         C702   1.481       .  S
C20          O22   1.265       .  A
C20          O26   1.260       .  A
C20         C115   1.462       .  S
C24         C202   1.463       .  S
In27         O29   2.252       .  S
In27         O30   2.266       .  S
In27         O38   2.240       .  S
In27         O32   2.251       .  S
In27         O34   2.258       .  S
In27         O35   2.248       .  S
In27         O36   2.212       .  S
In27         O39   2.245       .  S
C28          O34   1.263       .  A
C28          O36   1.258       .  A
C28         C638   1.469       .  S
O29          C37   1.260       .  A
O30          C37   1.261       .  A
C31          O38   1.263       .  A
C31          O32   1.262       .  A
C31         C597   1.492       .  S
C33          O35   1.265       .  A
C33          O39   1.260       .  A
C33         C193   1.467       .  S
C37         C124   1.472       .  S
In40         O42   2.238       .  S
In40         O43   2.260       .  S
In40         O51   2.229       .  S
In40         O45   2.242       .  S
In40         O47   2.246       .  S
In40         O48   2.244       .  S
In40         O49   2.207       .  S
In40         O52   2.232       .  S
C41          O47   1.264       .  A
C41          O49   1.258       .  A
C41         C670   1.462       .  S
O42          C50   1.260       .  A
O43          C50   1.263       .  A
C44          O51   1.263       .  A
C44          O45   1.263       .  A
C44         C606   1.476       .  S
C46          O48   1.266       .  A
C46          O52   1.260       .  A
C46          C89   1.463       .  S
C50         C176   1.467       .  S
In53         O55   2.232       .  S
In53         O56   2.253       .  S
In53         O64   2.236       .  S
In53         O58   2.242       .  S
In53         O60   2.251       .  S
In53         O61   2.247       .  S
In53         O62   2.217       .  S
In53         O65   2.239       .  S
C54          O60   1.263       .  A
C54          O62   1.258       .  A
C54         C533   1.464       .  S
O55          C63   1.261       .  A
O56          C63   1.264       .  A
C57          O64   1.262       .  A
C57          O58   1.264       .  A
C57         C565   1.490       .  S
C59          O61   1.263       .  A
C59          O65   1.259       .  A
C59         C206   1.464       .  S
C63         C111   1.465       .  S
In66         O68   2.243       .  S
In66         O69   2.268       .  S
In66         O77   2.234       .  S
In66         O71   2.250       .  S
In66         O73   2.251       .  S
In66         O74   2.246       .  S
In66         O75   2.205       .  S
In66         O78   2.245       .  S
C67          O73   1.264       .  A
C67          O75   1.258       .  A
C67         C510   1.467       .  S
O68          C76   1.260       .  A
O69          C76   1.262       .  A
C70          O77   1.263       .  A
C70          O71   1.262       .  A
C70         C574   1.487       .  S
C72          O74   1.264       .  A
C72          O78   1.260       .  A
C72        C1568   1.465   1_455  S
C76         C189   1.471       .  S
In79         O81   2.234       .  S
In79         O82   2.246       .  S
In79         O90   2.226       .  S
In79         O84   2.254       .  S
In79         O86   2.251       .  S
In79         O87   2.255       .  S
In79         O88   2.230       .  S
In79         O91   2.228       .  S
C80          O86   1.267       .  A
C80          O88   1.261       .  A
C80         C469   1.487       .  S
O81          C89   1.260       .  A
O82          C89   1.266       .  A
C83          O90   1.261       .  A
C83          O84   1.266       .  A
C83         C437   1.476       .  S
C85          O87   1.267       .  A
C85          O91   1.262       .  A
C85         C141   1.468       .  S
In92         O94   2.240       .  S
In92         O95   2.249       .  S
In92        O103   2.228       .  S
In92         O97   2.254       .  S
In92         O99   2.242       .  S
In92        O100   2.264       .  S
In92        O101   2.238       .  S
In92        O104   2.232       .  S
C93          O99   1.263       .  A
C93         O101   1.262       .  A
C93         C446   1.477       .  S
O94         C102   1.258       .  A
O95         C102   1.263       .  A
C96         O103   1.260       .  A
C96          O97   1.262       .  A
C96         C414   1.476       .  S
C98         O100   1.264       .  A
C98         O104   1.260       .  A
C102       C1590   1.462       .  S
In105       O107   2.228       .  S
In105       O108   2.249       .  S
In105       O116   2.219       .  S
In105       O110   2.252       .  S
In105       O112   2.241       .  S
In105       O113   2.252       .  S
In105       O114   2.226       .  S
In105       O117   2.233       .  S
C106        O112   1.266       .  A
C106        O114   1.262       .  A
C106        C405   1.477       .  S
O107        C115   1.259       .  A
O108        C115   1.266       .  A
C109        O116   1.260       .  A
C109        O110   1.265       .  A
C109        C373   1.475       .  S
C111        O113   1.264       .  A
C111        O117   1.261       .  A
In118       O120   2.234       .  S
In118       O121   2.253       .  S
In118       O129   2.225       .  S
In118       O123   2.262       .  S
In118       O125   2.251       .  S
In118       O126   2.258       .  S
In118       O127   2.214       .  S
In118       O130   2.239       .  S
C119        O125   1.269       .  A
C119        O127   1.261       .  A
C119        C382   1.483       .  S
O120        C128   1.260       .  A
O121        C128   1.267       .  A
C122        O129   1.259       .  A
C122        O123   1.268       .  A
C122        C478   1.493       .  S
C124        O126   1.266       .  A
C124        O130   1.262       .  A
C128       C1512   1.466       .  S
In131       O133   2.239       .  S
In131       O134   2.260       .  S
In131       O142   2.222       .  S
In131       O138   2.249       .  S
In131       O140   2.208       .  S
In131       O856   2.236       .  S
In131       O859   2.242       .  S
In131       O863   2.239       .  S
C132        O138   1.263       .  A
C132        O140   1.260       .  A
C132        C501   1.481       .  S
O133        C141   1.260       .  A
O134        C141   1.262       .  A
C135        O136   1.262       .  A
C135        O862   1.263       .  A
C135        C350   1.483   1_565  S
O136       In851   2.234       .  S
C137        O139   1.264   1_545  A
C137        O143   1.259       .  A
C137        C180   1.461       .  S
O139       In851   2.244       .  S
O142        C855   1.263       .  A
O143       In851   2.234   1_545  S
In144       O146   2.230       .  S
In144       O147   2.244       .  S
In144       O155   2.224       .  S
In144       O149   2.234       .  S
In144       O151   2.252       .  S
In144       O152   2.246       .  S
In144       O153   2.213       .  S
In144      O1596   2.234       .  S
C145        O151   1.264       .  A
C145        O153   1.259       .  A
C145        C542   1.465       .  S
O146        C154   1.262       .  A
O147        C154   1.264       .  A
C148        O155   1.261       .  A
C148        O149   1.264       .  A
C148        C341   1.472       .  S
C150        O152   1.264       .  A
C150       O1596   1.259       .  A
C150       C1542   1.463       .  S
C154        C163   1.462       .  S
O156      In1584   2.231   1_455  S
O156       C1590   1.260       .  A
In157       O159   2.230       .  S
In157       O160   2.241       .  S
In157       O168   2.213       .  S
In157       O162   2.247       .  S
In157       O164   2.241       .  S
In157       O165   2.247       .  S
In157       O166   2.213       .  S
In157       O169   2.230       .  S
C158        O164   1.267       .  A
C158        O166   1.260       .  A
C158        C318   1.479       .  S
O159        C167   1.261       .  A
O160        C167   1.266       .  A
C161        O168   1.261       .  A
C161        O162   1.264       .  A
C161        C277   1.484       .  S
C163        O165   1.263       .  A
C163        O169   1.260       .  A
In170       O172   2.234       .  S
In170       O173   2.241       .  S
In170       O181   2.209       .  S
In170       O175   2.246       .  S
In170       O177   2.242       .  S
In170       O178   2.257       .  S
In170       O179   2.224       .  S
In170       O182   2.235       .  S
C171        O177   1.264       .  A
C171        O179   1.263       .  A
C171        C286   1.487       .  S
O172        C180   1.260       .  A
O173        C180   1.265       .  A
C174        O181   1.258       .  A
C174        O175   1.266       .  A
C174        C245   1.476       .  S
C176        O178   1.264       .  A
C176        O182   1.261       .  A
In183       O185   2.238       .  S
In183       O186   2.255       .  S
In183       O194   2.220       .  S
In183       O188   2.250       .  S
In183       O191   2.266       .  S
In183       O192   2.222       .  S
In183       O195   2.236       .  S
In183       O910   2.240       .  S
C184        O192   1.263       .  A
C184        O910   1.265       .  A
C184        C974   1.472       .  S
O185        C193   1.259       .  A
O186        C193   1.266       .  A
C187        O194   1.259       .  A
C187        O188   1.264       .  A
C187        C213   1.472       .  S
C189        O191   1.265       .  A
C189        O195   1.260       .  A
O190       In903   2.240       .  S
O190        C904   1.265       .  A
In196       O199   2.248       .  S
In196       O207   2.207       .  S
In196       O201   2.253       .  S
In196       O203   2.252       .  S
In196       O204   2.251       .  S
In196       O205   2.227       .  S
In196       O208   2.226       .  S
In196       O918   2.236       .  S
C197        O203   1.265       .  A
C197        O205   1.262       .  A
C197        C222   1.475       .  S
O198       In916   2.236   1_545  S
O198        C206   1.260       .  A
O199        C926   1.265       .  A
C200        O207   1.258       .  A
C200        O201   1.267       .  A
C200        C309   1.482       .  S
C202        O204   1.265       .  A
C202        O208   1.261       .  A
C206        O919   1.265   1_545  A
C209        C210   1.400       .  A
C209        C214   1.402       .  A
C209        H219   1.084       .  S
C210        C215   1.478       .  S
C210        C211   1.410       .  A
C211        C212   1.402       .  A
C211        C936   1.506       .  S
C212        C213   1.403       .  A
C212        H937   1.084       .  S
C213        C214   1.416       .  A
C214        C218   1.508       .  S
C215        C220   1.410       .  A
C215        C224   1.400       .  A
C216        C931   1.506       .  S
C216        H233   1.110   1_565  S
C216        H234   1.111   1_565  S
C216        H952   1.110       .  S
H217        C932   1.084       .  S
C218        H229   1.111       .  S
C218        H230   1.110       .  S
C218        H231   1.108       .  S
C220        C221   1.404       .  A
C220        C945   1.506       .  S
C221        C222   1.403       .  A
C221        H946   1.084       .  S
C222        C223   1.417       .  A
C223        C224   1.402       .  A
C223        C227   1.510       .  S
C224        H228   1.085       .  S
C225        C940   1.506       .  S
C225        H235   1.111       .  S
C225        H236   1.110       .  S
C225        H237   1.110       .  S
H226        C941   1.084       .  S
C227        H238   1.111       .  S
C227        H239   1.107       .  S
C227        H240   1.110       .  S
H232        C936   1.110       .  S
C241        C242   1.398       .  A
C241        C246   1.400       .  A
C241        H251   1.085       .  S
C242        C247   1.473       .  S
C242        C243   1.408       .  A
C243        C244   1.402       .  A
C243        C248   1.506       .  S
C244        C245   1.404       .  A
C244        H249   1.084       .  S
C245        C246   1.419       .  A
C246        C250   1.509       .  S
C247        C252   1.409       .  A
C247        C256   1.398   1_545  A
C248        H264   1.110       .  S
C248        H265   1.110       .  S
C248        H266   1.111       .  S
C250        H261   1.109       .  S
C250        H262   1.110       .  S
C250        H263   1.111       .  S
C252        C253   1.402       .  A
C252        C257   1.506       .  S
C253        C254   1.404   1_545  A
C253        H258   1.084       .  S
C254        C904   1.474       .  S
C254        C975   1.418       .  A
C255        C974   1.417       .  A
C255        C976   1.400       .  A
C255        C259   1.508       .  S
C256        C975   1.399       .  A
C256        H980   1.085       .  S
C257        H267   1.111       .  S
C257        H268   1.110       .  S
C257        H269   1.111       .  S
C259        H270   1.110       .  S
C259        H271   1.107       .  S
C259        H272   1.111       .  S
H260        C976   1.085       .  S
C273        C274   1.400       .  A
C273        C278   1.405       .  A
C273        H283   1.084       .  S
C274        C279   1.478   1_556  S
C274        C275   1.407       .  A
C275        C276   1.399       .  A
C275        C280   1.508       .  S
C276        C277   1.408       .  A
C276        H281   1.084       .  S
C277        C278   1.423       .  A
C278        C282   1.510       .  S
C279        C284   1.409       .  A
C279        C288   1.399       .  A
C280        H296   1.109   1_556  S
C280        H297   1.110       .  S
C280        H298   1.111       .  S
C282        H293   1.111       .  S
C282        H294   1.110       .  S
C282        H295   1.102       .  S
C284        C285   1.400       .  A
C284        C289   1.509   1_554  S
C285        C286   1.408       .  A
C285        H290   1.084       .  S
C286        C287   1.420       .  A
C287        C288   1.405       .  A
C287        C291   1.507       .  S
C288        H292   1.084       .  S
C289        H299   1.111       .  S
C289        H300   1.109       .  S
C289        H301   1.111       .  S
C291        H302   1.111       .  S
C291        H303   1.110       .  S
C291        H304   1.110       .  S
C305        C306   1.397       .  A
C305        C310   1.399       .  A
C305        H315   1.086       .  S
C306        C311   1.473       .  S
C306       C1027   1.408       .  A
C307        C308   1.404       .  A
C307       C1026   1.409       .  A
C307        C312   1.506       .  S
C308        C309   1.406       .  A
C308        H313   1.084       .  S
C309       C1030   1.422       .  A
C310       C1029   1.421       .  A
C310        C314   1.510       .  S
C311        C316   1.408       .  A
C311        C320   1.397       .  A
C312        H328   1.110       .  S
C312        H329   1.110       .  S
C312        H330   1.111       .  S
C314        H325   1.110   1_545  S
C314        H326   1.111       .  S
C314        H327   1.111       .  S
C316        C317   1.400       .  A
C316        C321   1.506   1_545  S
C317        C318   1.404       .  A
C317        H322   1.087       .  S
C318        C319   1.421       .  A
C319        C320   1.401       .  A
C319        C323   1.509       .  S
C320        H324   1.087       .  S
C321        H331   1.111       .  S
C321        H332   1.110       .  S
C321       H1053   1.110       .  S
C323        H334   1.109       .  S
C323        H335   1.110       .  S
C323        H336   1.111       .  S
H333       C1041   1.110       .  S
C337        C338   1.398       .  A
C337        C342   1.399       .  A
C337        H347   1.086       .  S
C338        C343   1.473       .  S
C338        C339   1.408   1_455  A
C339       C1780   1.401       .  A
C339        C344   1.506   1_545  S
C340        C341   1.404       .  A
C340       C1779   1.401       .  A
C340        H345   1.084       .  S
C341       C1782   1.420       .  A
C342       C1781   1.419   1_455  A
C342        C346   1.510       .  S
C343        C348   1.407       .  A
C343        C352   1.398   1_556  A
C344        H361   1.110   1_655  S
C344       H1800   1.110       .  S
C344       H2522   1.111       .  S
C346        H357   1.111       .  S
C346       H1798   1.110       .  S
C346       H1799   1.105       .  S
C348        C349   1.399   1_556  A
C348        C353   1.508       .  S
C349        C350   1.408       .  A
C349        H354   1.083       .  S
C350        C351   1.420       .  A
C351        C352   1.403       .  A
C351        C355   1.507   1_455  S
C352       H1796   1.084   1_455  S
C353        H363   1.111       .  S
C353        H364   1.110       .  S
C353        H365   1.110       .  S
C355        H367   1.110   1_545  S
C355       H1806   1.110       .  S
C355       H1808   1.111       .  S
H356       C1792   1.084       .  S
H358       C1786   1.110       .  S
H359       C1786   1.105       .  S
H360       C1784   1.110       .  S
H362       C2504   1.111       .  S
H366       C1795   1.110       .  S
H368       C1795   1.111       .  S
C369        C370   1.399       .  A
C369        C374   1.399       .  A
C369        H379   1.086       .  S
C370        C375   1.478       .  S
C370        C371   1.411       .  A
C371        C372   1.405       .  A
C371       C1816   1.506       .  S
C372        C373   1.404       .  A
C372        H377   1.084       .  S
C373        C374   1.419       .  A
C374        C378   1.512       .  S
C375        C380   1.410       .  A
C375        C384   1.399       .  A
C376       C1811   1.506   1_455  S
C376        H392   1.110       .  S
C376        H393   1.108       .  S
C376        H394   1.111       .  S
C378        H389   1.110       .  S
C378        H390   1.111       .  S
C378        H391   1.106       .  S
C380        C381   1.405       .  A
C380        C385   1.507       .  S
C381        C382   1.406       .  A
C381        H386   1.082       .  S
C382        C383   1.420       .  A
C383        C384   1.403       .  A
C383        C387   1.509       .  S
C384        H388   1.083       .  S
C385        H395   1.110       .  S
C385        H396   1.110       .  S
C385        H397   1.108       .  S
C387        H398   1.109       .  S
C387        H399   1.111       .  S
C387        H400   1.111       .  S
C401        C402   1.400   1_455  A
C401        C406   1.405   1_455  A
C401        H411   1.084       .  S
C402        C407   1.480   1_655  S
C402       C1843   1.411       .  A
C403        C404   1.401       .  A
C403       C1842   1.411       .  A
C403        C408   1.508       .  S
C404        C405   1.403       .  A
C404        H409   1.083       .  S
C405       C1846   1.419       .  A
C406       C1845   1.418       .  A
C406        C410   1.508       .  S
C407        C412   1.409       .  A
C407        C416   1.401   1_455  A
C408        H424   1.110       .  S
C408        H425   1.110       .  S
C408        H426   1.111       .  S
C410        H421   1.110   1_655  S
C410        H422   1.111       .  S
C410        H423   1.106       .  S
C412        C413   1.401       .  A
C412        C417   1.506       .  S
C413        C414   1.404       .  A
C413        H418   1.084       .  S
C414        C415   1.419       .  A
C415        C416   1.405   1_455  A
C415        C419   1.509   1_455  S
C416       H1860   1.084       .  S
C417        H427   1.111       .  S
C417        H428   1.110       .  S
C417        H429   1.110       .  S
C419        H430   1.110       .  S
C419        H431   1.104       .  S
C419       H1872   1.111       .  S
H420       C1856   1.084       .  S
H432       C1859   1.111       .  S
C433        C434   1.400       .  A
C433        C438   1.403   1_556  A
C433        H443   1.084       .  S
C434        C439   1.481       .  S
C434        C435   1.411   1_556  A
C435        C436   1.405       .  A
C435        C440   1.506       .  S
C436        C437   1.404       .  A
C436        H441   1.084       .  S
C437        C438   1.417       .  A
C438        C442   1.508       .  S
C439        C444   1.410       .  A
C439        C448   1.401       .  A
C440        H456   1.110       .  S
C440        H457   1.110       .  S
C440        H458   1.111       .  S
C442        H453   1.111       .  S
C442        H454   1.110       .  S
C442        H455   1.107       .  S
C444        C445   1.404       .  A
C444        C449   1.506       .  S
C445        C446   1.405       .  A
C445        H450   1.084       .  S
C446        C447   1.418       .  A
C447        C448   1.403       .  A
C447        C451   1.509       .  S
C448        H452   1.085       .  S
C449        H460   1.110       .  S
C449        H461   1.110       .  S
C449       H1899   1.111   1_455  S
C451        H462   1.111       .  S
C451        H463   1.106       .  S
C451        H464   1.110       .  S
H459       C1889   1.111       .  S
C465        C466   1.400       .  A
C465        C470   1.405       .  A
C465        H475   1.083       .  S
C466       C1911   1.483       .  S
C466       C1907   1.409       .  A
C467       C1906   1.408       .  A
C467       C1908   1.406       .  A
C467        C472   1.506       .  S
C468        C469   1.406       .  A
C468       C1907   1.405       .  A
C468       H1913   1.083       .  S
C469        C470   1.421       .  A
C470        C474   1.509       .  S
C471       C1906   1.483       .  S
C471        C480   1.398       .  A
C471       C1916   1.409       .  A
C472        H488   1.110       .  S
C472        H489   1.110       .  S
C472        H490   1.111       .  S
H473       C1908   1.083       .  S
C474        H485   1.111       .  S
C474        H486   1.111       .  S
C474        H487   1.110       .  S
C476       C1911   1.410       .  A
C476       C1917   1.404       .  A
C476        C481   1.507       .  S
C477        C478   1.407       .  A
C477       C1916   1.405       .  A
C477        H482   1.084       .  S
C478        C479   1.424       .  A
C479        C480   1.405       .  A
C479        C483   1.509       .  S
C480        H484   1.085       .  S
C481        H491   1.111       .  S
C481        H492   1.110       .  S
C481        H493   1.109       .  S
C483        H494   1.109       .  S
C483        H495   1.110       .  S
C483        H496   1.111       .  S
C497        C502   1.406       .  A
C497       C1218   1.400   1_545  A
C497        H507   1.083       .  S
C498        C503   1.469       .  S
C498        C499   1.407       .  A
C498       C1217   1.398       .  A
C499        C500   1.395       .  A
C499        C504   1.509       .  S
C500        C501   1.406       .  A
C500        H505   1.084       .  S
C501       C1222   1.419       .  A
C502       C1221   1.419   1_545  A
C502        C506   1.506       .  S
C503        C508   1.409       .  A
C503        C512   1.397       .  A
C504        H520   1.110       .  S
C504        H521   1.110       .  S
C504        H522   1.111       .  S
C506        H517   1.111   1_455  S
C506        H518   1.110   1_545  S
C506        H519   1.110       .  S
C508        C509   1.402       .  A
C508        C513   1.506       .  S
C509        C510   1.403       .  A
C509        H514   1.084       .  S
C510        C511   1.416       .  A
C511        C512   1.396       .  A
C511        C515   1.509       .  S
C512        H516   1.084       .  S
C513        H523   1.111       .  S
C513        H525   1.110       .  S
C513       H1244   1.110       .  S
C515        H527   1.108       .  S
C515        H528   1.110       .  S
C515       H1966   1.110   1_455  S
H524       C1233   1.110       .  S
H526       C1955   1.111       .  S
C529        C530   1.400       .  A
C529        C534   1.398       .  A
C529        H539   1.085       .  S
C530        C535   1.474       .  S
C530        C531   1.410       .  A
C531        C532   1.404       .  A
C531        C536   1.505       .  S
C532        C533   1.402       .  A
C532        H537   1.084       .  S
C533        C534   1.413       .  A
C534        C538   1.509       .  S
C535        C540   1.410       .  A
C535        C544   1.400       .  A
C536        H552   1.110       .  S
C536        H553   1.110       .  S
C536        H554   1.111       .  S
C538        H550   1.110       .  S
C538        H551   1.108       .  S
C538       H1989   1.111       .  S
C540        C541   1.403       .  A
C540        C545   1.506       .  S
C541        C542   1.402       .  A
C541        H546   1.084       .  S
C542        C543   1.414       .  A
C543        C544   1.399       .  A
C543        C547   1.509       .  S
C544        H548   1.085       .  S
C545        H557   1.110       .  S
C545       H1995   1.111       .  S
C545       H1996   1.110       .  S
C547        H558   1.111       .  S
C547        H559   1.108       .  S
C547        H560   1.111       .  S
H549       C1978   1.111       .  S
H555       C1985   1.111       .  S
H556       C1985   1.110       .  S
C561        C562   1.399       .  A
C561        C566   1.404       .  A
C561        H571   1.082       .  S
C562        C567   1.481       .  S
C562       C2003   1.409       .  A
C563       C2002   1.408       .  A
C563       C2004   1.404       .  A
C563        C568   1.506       .  S
C564        C565   1.409       .  A
C564       C2003   1.404       .  A
C564       H2009   1.081       .  S
C565        C566   1.421       .  A
C566        C570   1.508       .  S
C567       C2732   1.409       .  A
C567       C2016   1.401       .  A
C568        H584   1.110       .  S
C568        H585   1.110       .  S
C568        H586   1.111       .  S
H569       C2004   1.081       .  S
C570        H581   1.111       .  S
C570        H582   1.110       .  S
C570        H583   1.110       .  S
C572        C573   1.400       .  A
C572       C2727   1.410       .  A
C572       C2017   1.509       .  S
C573        C574   1.406       .  A
C573        H578   1.084       .  S
C574       C1295   1.420       .  A
C575        C576   1.407       .  A
C575       C1294   1.420       .  A
C575        C579   1.508       .  S
C576       C2007   1.401       .  A
C576        H580   1.085       .  S
C577       C2012   1.507       .  S
C577        H587   1.111       .  S
C577        H588   1.110       .  S
C577       H2029   1.110       .  S
C579        H590   1.111       .  S
C579        H591   1.106       .  S
C579        H592   1.111       .  S
H589       C2017   1.108       .  S
C593        C594   1.400       .  A
C593        C598   1.407       .  A
C593        H603   1.084       .  S
C594        C599   1.481       .  S
C594        C595   1.408       .  A
C595        C596   1.403       .  A
C595        C600   1.507       .  S
C596        C597   1.408       .  A
C596        H601   1.084       .  S
C597        C598   1.422       .  A
C598        C602   1.507       .  S
C599        C604   1.410       .  A
C599        C608   1.400       .  A
C600        H616   1.110       .  S
C600        H617   1.110       .  S
C600        H618   1.111       .  S
C602        H613   1.111       .  S
C602        H614   1.110       .  S
C602        H615   1.110       .  S
C604        C605   1.405       .  A
C604        C609   1.506       .  S
C605        C606   1.404       .  A
C605        H610   1.084       .  S
C606        C607   1.418       .  A
C607        C608   1.402       .  A
C607        C611   1.510       .  S
C608        H612   1.084       .  S
C609        H619   1.111       .  S
C609        H620   1.110       .  S
C609        H621   1.110       .  S
C611        H622   1.110       .  S
C611        H623   1.106       .  S
C611        H624   1.111       .  S
C625        C626   1.400       .  A
C625        C630   1.405       .  A
C625        H635   1.084       .  S
C626        C631   1.469       .  S
C626        C627   1.407       .  A
C627        C628   1.393       .  A
C627        C632   1.510       .  S
C628        C629   1.406       .  A
C628        H633   1.083       .  S
C629        C630   1.418       .  A
C630        C634   1.506       .  S
C631        C636   1.410       .  A
C631        C640   1.397       .  A
C632        H648   1.110       .  S
C632        H649   1.109       .  S
C632        H650   1.111       .  S
C634        H645   1.110       .  S
C634        H646   1.111       .  S
C634        H647   1.110       .  S
C636        C637   1.403       .  A
C636        C641   1.507       .  S
C637        C638   1.403       .  A
C637        H642   1.083       .  S
C638        C639   1.417       .  A
C639        C640   1.397       .  A
C639        C643   1.510       .  S
C640        H644   1.085       .  S
C641        H651   1.110       .  S
C641        H652   1.110       .  S
C641        H653   1.110       .  S
C643        H654   1.111       .  S
C643        H655   1.107       .  S
C643        H656   1.111       .  S
C657        C658   1.399       .  A
C657        C662   1.403       .  A
C657        H667   1.084       .  S
C658        C663   1.467   1_556  S
C658        C659   1.406       .  A
C659        C660   1.395       .  A
C659        C664   1.509       .  S
C660        C661   1.407       .  A
C660        H665   1.084       .  S
C661        C662   1.417       .  A
C662        C666   1.506       .  S
C663        C668   1.409       .  A
C663        C672   1.398       .  A
C664        H680   1.110       .  S
C664        H681   1.109       .  S
C664        H682   1.111       .  S
C666        H677   1.110       .  S
C666        H678   1.111       .  S
C666        H679   1.110       .  S
C668        C669   1.401       .  A
C668        C673   1.507       .  S
C669        C670   1.402       .  A
C669        H674   1.084       .  S
C670        C671   1.415       .  A
C671        C672   1.396       .  A
C671        C675   1.509       .  S
C672        H676   1.085   1_554  S
C673        H683   1.111       .  S
C673        H684   1.110   1_554  S
C673        H685   1.110   1_554  S
C675        H686   1.111       .  S
C675        H687   1.107       .  S
C675        H688   1.111       .  S
C689        C690   1.399       .  A
C689        C694   1.401       .  A
C689        H699   1.085       .  S
C690        C695   1.475       .  S
C690        C691   1.408       .  A
C691        C692   1.403       .  A
C691        C696   1.506       .  S
C692        C693   1.405       .  A
C692        H697   1.084       .  S
C693        C694   1.418       .  A
C694        C698   1.509       .  S
C695        C700   1.408       .  A
C695        C704   1.399       .  A
C696        H712   1.110       .  S
C696        H713   1.110       .  S
C696        H714   1.111       .  S
C698        H709   1.111       .  S
C698        H710   1.109       .  S
C698        H711   1.111       .  S
C700        C701   1.400       .  A
C700        C705   1.507       .  S
C701        C702   1.407       .  A
C701        H706   1.083       .  S
C702        C703   1.419       .  A
C703        C704   1.403       .  A
C703        C707   1.508       .  S
C704        H708   1.085       .  S
C705        H715   1.111       .  S
C705        H716   1.110       .  S
C705        H717   1.110       .  S
C707        H718   1.111       .  S
C707        H719   1.109       .  S
C707        H720   1.110       .  S
In721       O723   2.229       .  S
In721       O724   2.260       .  S
In721       O732   2.220       .  S
In721       O726   2.236       .  S
In721       O728   2.249       .  S
In721       O729   2.241       .  S
In721       O730   2.197       .  S
In721       O733   2.229       .  S
C722        O728   1.265       .  A
C722        O730   1.259       .  A
C722       C1381   1.478       .  S
O723        C731   1.261       .  A
O724        C731   1.265       .  A
C725        O732   1.262       .  A
C725        O726   1.265       .  A
C725       C1413   1.477       .  S
C727        O729   1.266       .  A
C727        O733   1.260       .  A
C727        C887   1.460       .  S
C731        C818   1.467       .  S
In734       O736   2.228       .  S
In734       O737   2.257       .  S
In734       O745   2.226       .  S
In734       O739   2.229       .  S
In734       O741   2.245       .  S
In734       O742   2.238       .  S
In734       O743   2.198       .  S
In734       O746   2.240       .  S
C735        O741   1.264       .  A
C735        O743   1.260       .  A
C735       C1349   1.479       .  S
O736        C744   1.260       .  A
O737        C744   1.264       .  A
C738        O745   1.263       .  A
C738        O739   1.263       .  A
C738       C1422   1.482       .  S
C740        O742   1.265       .  A
C740        O746   1.260       .  A
C740        C835   1.463       .  S
C744        C922   1.464       .  S
In747       O749   2.250       .  S
In747       O750   2.262       .  S
In747       O758   2.237       .  S
In747       O752   2.246       .  S
In747       O754   2.254       .  S
In747       O755   2.247       .  S
In747       O756   2.212       .  S
In747       O759   2.240       .  S
C748        O754   1.263       .  A
C748        O756   1.258       .  A
C748       C1358   1.468       .  S
O749        C757   1.260       .  A
O750        C757   1.261       .  A
C751        O758   1.263       .  A
C751        O752   1.262       .  A
C751       C1317   1.491       .  S
C753        O755   1.265       .  A
C753        O759   1.260       .  A
C753        C913   1.465       .  S
C757        C844   1.470       .  S
In760       O762   2.240       .  S
In760       O763   2.265       .  S
In760       O771   2.235       .  S
In760       O765   2.250       .  S
In760       O767   2.255       .  S
In760       O768   2.245       .  S
In760       O769   2.209       .  S
In760       O772   2.235       .  S
C761        O767   1.264       .  A
C761        O769   1.257       .  A
C761       C1390   1.465       .  S
O762        C770   1.260       .  A
O763        C770   1.262       .  A
C764        O771   1.263       .  A
C764        O765   1.264       .  A
C764       C1326   1.479       .  S
C766        O768   1.266       .  A
C766        O772   1.260       .  A
C766        C809   1.463       .  S
C770        C896   1.469       .  S
In773       O775   2.235       .  S
In773       O776   2.261       .  S
In773       O784   2.236       .  S
In773       O778   2.243       .  S
In773       O780   2.255       .  S
In773       O781   2.249       .  S
In773       O782   2.220       .  S
In773       O785   2.244       .  S
C774        O780   1.263       .  A
C774        O782   1.258       .  A
C774       C1253   1.464       .  S
O775        C783   1.260       .  A
O776        C783   1.264       .  A
C777        O784   1.262       .  A
C777        O778   1.264       .  A
C777       C1285   1.490       .  S
C779        O781   1.264       .  A
C779        O785   1.259       .  A
C779        C926   1.466       .  S
C783        C831   1.468       .  S
In786       O788   2.241       .  S
In786       O789   2.269       .  S
In786       O797   2.234       .  S
In786       O791   2.251   1_565  S
In786       O793   2.252       .  S
In786       O794   2.247       .  S
In786       O795   2.202       .  S
In786       O798   2.247       .  S
C787        O793   1.265       .  A
C787        O795   1.257       .  A
C787       C1230   1.474       .  S
O788        C796   1.260       .  A
O789        C796   1.263       .  A
C790        O797   1.262       .  A
C790        O791   1.263   1_565  A
C790       C1294   1.480   1_565  S
C792        O794   1.265       .  A
C792        O798   1.260       .  A
C792       C2288   1.468   1_455  S
C796        C909   1.471       .  S
In799       O801   2.233       .  S
In799       O802   2.246       .  S
In799       O810   2.224       .  S
In799       O804   2.256       .  S
In799       O806   2.247       .  S
In799       O807   2.257       .  S
In799       O808   2.230       .  S
In799       O811   2.235       .  S
C800        O806   1.267       .  A
C800        O808   1.261       .  A
C800       C1189   1.492       .  S
O801        C809   1.260       .  A
O802        C809   1.266       .  A
C803        O810   1.260       .  A
C803        O804   1.266       .  A
C803       C1157   1.476       .  S
C805        O807   1.266       .  A
C805        O811   1.262       .  A
C805        C861   1.469       .  S
In812       O814   2.240       .  S
In812       O815   2.249       .  S
In812       O823   2.228       .  S
In812       O817   2.255       .  S
In812       O819   2.244       .  S
In812       O820   2.263       .  S
In812       O821   2.235       .  S
In812       O824   2.233       .  S
C813        O819   1.263       .  A
C813        O821   1.261       .  A
C813       C1166   1.475       .  S
O814        C822   1.258       .  A
O815        C822   1.263       .  A
C816        O823   1.260       .  A
C816        O817   1.263       .  A
C816       C1134   1.477       .  S
C818        O820   1.263       .  A
C818        O824   1.260       .  A
C822       C2310   1.462       .  S
In825       O827   2.229       .  S
In825       O828   2.255       .  S
In825       O836   2.217       .  S
In825       O830   2.255       .  S
In825       O832   2.242       .  S
In825       O833   2.259       .  S
In825       O834   2.227       .  S
In825       O837   2.236       .  S
C826        O832   1.265       .  A
C826        O834   1.262       .  A
C826       C1125   1.475       .  S
O827        C835   1.258       .  A
O828        C835   1.266       .  A
C829        O836   1.259       .  A
C829        O830   1.264       .  A
C829       C1093   1.476       .  S
C831        O833   1.264       .  A
C831        O837   1.262       .  A
In838       O840   2.236       .  S
In838       O841   2.252       .  S
In838       O849   2.220       .  S
In838       O843   2.263       .  S
In838       O845   2.252       .  S
In838       O846   2.252       .  S
In838       O847   2.212       .  S
In838       O850   2.238       .  S
C839        O845   1.269       .  A
C839        O847   1.261       .  A
C839       C1102   1.484       .  S
O840        C848   1.260       .  A
O841        C848   1.266       .  A
C842        O849   1.259       .  A
C842        O843   1.268       .  A
C842       C1198   1.492       .  S
C844        O846   1.266       .  A
C844        O850   1.263       .  A
C848       C2232   1.466       .  S
In851       O853   2.243       .  S
In851       O854   2.259       .  S
In851       O862   2.225       .  S
In851       O858   2.257       .  S
In851       O860   2.205       .  S
C852        O858   1.263       .  A
C852        O860   1.259       .  A
C852       C1221   1.483       .  S
O853        C861   1.261       .  A
O854        C861   1.262       .  A
C855        O856   1.262       .  A
C855       C1070   1.482       .  S
C857        O859   1.264       .  A
C857        O863   1.260       .  A
C857        C900   1.463       .  S
In864       O866   2.224       .  S
In864       O867   2.242       .  S
In864       O875   2.223       .  S
In864       O869   2.232       .  S
In864       O871   2.248       .  S
In864       O872   2.242       .  S
In864       O873   2.213       .  S
In864      O2316   2.233       .  S
C865        O871   1.265       .  A
C865        O873   1.260       .  A
C865       C1262   1.467       .  S
O866        C874   1.261       .  A
O867        C874   1.264       .  A
C868        O875   1.261       .  A
C868        O869   1.264       .  A
C868       C1061   1.470       .  S
C870        O872   1.264       .  A
C870       O2316   1.259       .  A
C870       C2262   1.462       .  S
C874        C883   1.459       .  S
O876      In2304   2.233   1_455  S
O876       C2310   1.260       .  A
In877       O879   2.230       .  S
In877       O880   2.236       .  S
In877       O888   2.215       .  S
In877       O882   2.246       .  S
In877       O884   2.244       .  S
In877       O885   2.244       .  S
In877       O886   2.217       .  S
In877       O889   2.223       .  S
C878        O884   1.267       .  A
C878        O886   1.260       .  A
C878       C1038   1.484       .  S
O879        C887   1.261       .  A
O880        C887   1.265       .  A
C881        O888   1.261       .  A
C881        O882   1.264       .  A
C881        C997   1.483       .  S
C883        O885   1.263       .  A
C883        O889   1.260       .  A
In890       O892   2.233       .  S
In890       O893   2.250       .  S
In890       O901   2.211       .  S
In890       O895   2.246       .  S
In890       O897   2.244       .  S
In890       O898   2.265       .  S
In890       O899   2.229       .  S
In890       O902   2.237       .  S
C891        O897   1.263       .  A
C891        O899   1.263       .  A
C891       C1006   1.488       .  S
O892        C900   1.259       .  A
O893        C900   1.265       .  A
C894        O901   1.259       .  A
C894        O895   1.264       .  A
C894        C965   1.472       .  S
C896        O898   1.264       .  A
C896        O902   1.260       .  A
In903       O905   2.238       .  S
In903       O906   2.253       .  S
In903       O914   2.218       .  S
In903       O908   2.251       .  S
In903       O911   2.265       .  S
In903       O912   2.215       .  S
In903       O915   2.237       .  S
C904        O912   1.262       .  A
O905        C913   1.259       .  A
O906        C913   1.265       .  A
C907        O914   1.259       .  A
C907        O908   1.264       .  A
C907        C933   1.471       .  S
C909        O911   1.265       .  A
C909        O915   1.261       .  A
In916       O919   2.243       .  S
In916       O927   2.206       .  S
In916       O921   2.251   1_565  S
In916       O923   2.247       .  S
In916       O924   2.253       .  S
In916       O925   2.224       .  S
In916       O928   2.226       .  S
C917        O923   1.265       .  A
C917        O925   1.262       .  A
C917        C942   1.473       .  S
O918        C926   1.260       .  A
C920        O927   1.258   1_545  A
C920        O921   1.267       .  A
C920       C1029   1.478       .  S
C922        O924   1.265       .  A
C922        O928   1.261       .  A
C929        C930   1.399       .  A
C929        C934   1.401       .  A
C929        H939   1.084       .  S
C930        C935   1.476       .  S
C930        C931   1.410       .  A
C931        C932   1.402       .  A
C932        C933   1.403       .  A
C933        C934   1.416       .  A
C934        C938   1.508       .  S
C935        C940   1.409   1_565  A
C935        C944   1.400       .  A
C936        H953   1.110       .  S
C936        H954   1.111       .  S
C938        H949   1.111       .  S
C938        H950   1.110       .  S
C938        H951   1.108       .  S
C940        C941   1.403       .  A
C941        C942   1.403   1_545  A
C942        C943   1.417       .  A
C943        C944   1.401       .  A
C943        C947   1.510       .  S
C944        H948   1.085       .  S
C945        H955   1.111       .  S
C945        H956   1.110       .  S
C945        H957   1.110       .  S
C947        H958   1.111       .  S
C947        H959   1.107       .  S
C947        H960   1.110       .  S
C961        C962   1.399       .  A
C961        C966   1.399       .  A
C961        H971   1.085       .  S
C962        C967   1.473       .  S
C962        C963   1.409       .  A
C963        C964   1.403       .  A
C963        C968   1.505       .  S
C964        C965   1.403       .  A
C964        H969   1.084       .  S
C965        C966   1.417       .  A
C966        C970   1.510       .  S
C967        C972   1.410       .  A
C967        C976   1.398       .  A
C968        H984   1.110       .  S
C968        H985   1.110       .  S
C968        H986   1.111       .  S
C970        H981   1.109       .  S
C970        H982   1.111       .  S
C970        H983   1.111       .  S
C972        C973   1.402       .  A
C972        C977   1.507       .  S
C973        C974   1.403       .  A
C973        H978   1.084       .  S
C975        C979   1.509       .  S
C977        H987   1.111       .  S
C977        H988   1.110       .  S
C977        H989   1.110       .  S
C979        H990   1.110       .  S
C979        H991   1.107       .  S
C979        H992   1.111       .  S
C993        C994   1.400       .  A
C993        C998   1.404       .  A
C993       H1003   1.085       .  S
C994        C999   1.479   1_556  S
C994        C995   1.407       .  A
C995        C996   1.399       .  A
C995       C1000   1.508       .  S
C996        C997   1.409       .  A
C996       H1001   1.085       .  S
C997        C998   1.423       .  A
C998       C1002   1.510       .  S
C999       C1004   1.409       .  A
C999       C1008   1.400       .  A
C1000      H1016   1.110   1_556  S
C1000      H1017   1.110       .  S
C1000      H1018   1.111       .  S
C1002      H1013   1.111       .  S
C1002      H1014   1.110       .  S
C1002      H1015   1.099       .  S
C1004      C1005   1.400       .  A
C1004      C1009   1.508   1_554  S
C1005      C1006   1.407       .  A
C1005      H1010   1.084       .  S
C1006      C1007   1.421       .  A
C1007      C1008   1.405       .  A
C1007      C1011   1.507       .  S
C1008      H1012   1.085       .  S
C1009      H1019   1.111       .  S
C1009      H1020   1.109       .  S
C1009      H1021   1.111       .  S
C1011      H1022   1.111       .  S
C1011      H1023   1.110       .  S
C1011      H1024   1.110       .  S
C1025      C1026   1.397       .  A
C1025      C1030   1.400       .  A
C1025      H1035   1.085       .  S
C1026      C1031   1.475       .  S
C1027      C1028   1.403       .  A
C1027      C1032   1.506       .  S
C1028      C1029   1.405       .  A
C1028      H1033   1.084       .  S
C1030      C1034   1.510       .  S
C1031      C1036   1.408       .  A
C1031      C1040   1.397       .  A
C1032      H1048   1.110       .  S
C1032      H1049   1.110       .  S
C1032      H1050   1.111       .  S
C1034      H1045   1.110       .  S
C1034      H1046   1.110       .  S
C1034      H1047   1.111       .  S
C1036      C1037   1.402       .  A
C1036      C1041   1.506       .  S
C1037      C1038   1.406       .  A
C1037      H1042   1.086       .  S
C1038      C1039   1.422       .  A
C1039      C1040   1.402       .  A
C1039      C1043   1.509       .  S
C1040      H1044   1.086       .  S
C1041      H1051   1.111       .  S
C1041      H1052   1.110       .  S
C1043      H1054   1.110       .  S
C1043      H1055   1.111       .  S
C1043      H1056   1.111       .  S
C1057      C1058   1.399       .  A
C1057      C1062   1.399       .  A
C1057      H1067   1.085       .  S
C1058      C1063   1.474       .  S
C1058      C1059   1.409   1_455  A
C1059      C2500   1.401       .  A
C1059      C1064   1.506       .  S
C1060      C2499   1.401       .  A
C1060      C1061   1.404       .  A
C1060      H1065   1.085       .  S
C1061      C2502   1.419       .  A
C1062      C2501   1.419   1_455  A
C1062      C1066   1.510       .  S
C1063      C1068   1.408       .  A
C1063      C1072   1.399   1_556  A
C1064      H2520   1.110       .  S
C1064      H1081   1.110   1_655  S
C1064      H1802   1.111       .  S
C1066      H1077   1.111       .  S
C1066      H2518   1.110       .  S
C1066      H2519   1.105       .  S
C1068      C1069   1.399   1_556  A
C1068      C1073   1.508       .  S
C1069      C1070   1.407       .  A
C1069      H1074   1.084       .  S
C1070      C1071   1.419       .  A
C1071      C1072   1.403       .  A
C1071      C1075   1.507   1_455  S
C1072      H2516   1.085   1_455  S
C1073      H1083   1.111       .  S
C1073      H1084   1.110       .  S
C1073      H1085   1.110       .  S
C1075      H2526   1.110       .  S
C1075      H1087   1.110       .  S
C1075      H2528   1.111       .  S
H1076      C2512   1.085       .  S
H1078      C2506   1.110       .  S
H1079      C2506   1.105       .  S
H1080      C2504   1.110       .  S
H1082      C1784   1.111       .  S
H1086      C2515   1.110       .  S
H1088      C2515   1.111       .  S
C1089      C1090   1.398       .  A
C1089      C1094   1.398       .  A
C1089      H1099   1.086       .  S
C1090      C1095   1.478       .  S
C1090      C1091   1.411       .  A
C1091      C1092   1.406       .  A
C1091      C2536   1.506       .  S
C1092      C1093   1.405       .  A
C1092      H1097   1.085       .  S
C1093      C1094   1.419       .  A
C1094      C1098   1.511       .  S
C1095      C1100   1.410       .  A
C1095      C1104   1.399       .  A
C1096      C2531   1.507   1_455  S
C1096      H1112   1.110       .  S
C1096      H1113   1.108       .  S
C1096      H1114   1.111       .  S
C1098      H1109   1.110       .  S
C1098      H1110   1.111       .  S
C1098      H1111   1.106       .  S
C1100      C1101   1.405       .  A
C1100      C1105   1.507       .  S
C1101      C1102   1.406       .  A
C1101      H1106   1.082       .  S
C1102      C1103   1.421       .  A
C1103      C1104   1.402       .  A
C1103      C1107   1.509       .  S
C1104      H1108   1.083       .  S
C1105      H1115   1.110       .  S
C1105      H1116   1.110       .  S
C1105      H1117   1.108       .  S
C1107      H1118   1.110       .  S
C1107      H1119   1.110       .  S
C1107      H1120   1.111       .  S
C1121      C1122   1.400   1_455  A
C1121      C1126   1.404   1_455  A
C1121      H1131   1.084       .  S
C1122      C1127   1.479   1_655  S
C1122      C2563   1.411       .  A
C1123      C2562   1.411       .  A
C1123      C1124   1.400       .  A
C1123      C1128   1.508       .  S
C1124      C1125   1.402       .  A
C1124      H1129   1.082       .  S
C1125      C2566   1.418       .  A
C1126      C2565   1.418       .  A
C1126      C1130   1.508       .  S
C1127      C1132   1.408       .  A
C1127      C1136   1.400   1_455  A
C1128      H1144   1.110       .  S
C1128      H1145   1.110       .  S
C1128      H1146   1.110       .  S
C1130      H1141   1.110   1_655  S
C1130      H1142   1.111       .  S
C1130      H1143   1.106       .  S
C1132      C1133   1.401       .  A
C1132      C1137   1.506       .  S
C1133      C1134   1.404       .  A
C1133      H1138   1.084       .  S
C1134      C1135   1.420       .  A
C1135      C1136   1.405   1_455  A
C1135      C1139   1.509   1_455  S
C1136      H2580   1.084       .  S
C1137      H1147   1.111       .  S
C1137      H1148   1.110       .  S
C1137      H1149   1.110       .  S
C1139      H1150   1.110       .  S
C1139      H1151   1.103       .  S
C1139      H2592   1.111       .  S
H1140      C2576   1.085       .  S
H1152      C2579   1.111       .  S
C1153      C1154   1.400       .  A
C1153      C1158   1.402   1_556  A
C1153      H1163   1.084       .  S
C1154      C1159   1.480       .  S
C1154      C1155   1.410   1_556  A
C1155      C1156   1.405       .  A
C1155      C1160   1.506       .  S
C1156      C1157   1.404       .  A
C1156      H1161   1.084       .  S
C1157      C1158   1.417       .  A
C1158      C1162   1.508       .  S
C1159      C1164   1.410       .  A
C1159      C1168   1.401       .  A
C1160      H1176   1.110       .  S
C1160      H1177   1.110       .  S
C1160      H1178   1.111       .  S
C1162      H1173   1.111       .  S
C1162      H1174   1.110       .  S
C1162      H1175   1.107       .  S
C1164      C1165   1.404       .  A
C1164      C1169   1.506       .  S
C1165      C1166   1.404       .  A
C1165      H1170   1.084       .  S
C1166      C1167   1.418       .  A
C1167      C1168   1.403       .  A
C1167      C1171   1.510       .  S
C1168      H1172   1.085       .  S
C1169      H2619   1.111   1_455  S
C1169      H1180   1.110       .  S
C1169      H1181   1.110       .  S
C1171      H1182   1.111       .  S
C1171      H1183   1.106       .  S
C1171      H1184   1.110       .  S
H1179      C2609   1.111       .  S
C1185      C1186   1.400       .  A
C1185      C1190   1.405       .  A
C1185      H1195   1.083       .  S
C1186      C2631   1.482   1_455  S
C1186      C2627   1.408       .  A
C1187      C2626   1.408       .  A
C1187      C2628   1.405       .  A
C1187      C1192   1.506       .  S
C1188      C2627   1.405       .  A
C1188      C1189   1.408       .  A
C1188      H2633   1.083       .  S
C1189      C1190   1.423       .  A
C1190      C1194   1.509       .  S
C1191      C2626   1.483       .  S
C1191      C2636   1.409       .  A
C1191      C1200   1.398       .  A
C1192      H1208   1.110       .  S
C1192      H1209   1.110       .  S
C1192      H1210   1.111       .  S
H1193      C2628   1.083       .  S
C1194      H1205   1.111       .  S
C1194      H1206   1.110       .  S
C1194      H1207   1.111       .  S
C1196      C2631   1.409   1_455  A
C1196      C2637   1.405   1_455  A
C1196      C1201   1.506       .  S
C1197      C2636   1.405       .  A
C1197      C1198   1.407       .  A
C1197      H1202   1.083       .  S
C1198      C1199   1.425       .  A
C1199      C1200   1.405       .  A
C1199      C1203   1.509       .  S
C1200      H1204   1.085       .  S
C1201      H1211   1.111       .  S
C1201      H1212   1.110       .  S
C1201      H1213   1.111       .  S
C1203      H1214   1.109       .  S
C1203      H1215   1.111       .  S
C1203      H1216   1.111       .  S
C1217      C1222   1.404       .  A
C1217      H1227   1.084       .  S
C1218      C1223   1.471       .  S
C1218      C1219   1.407       .  A
C1219      C1220   1.394       .  A
C1219      C1224   1.510       .  S
C1220      C1221   1.406       .  A
C1220      H1225   1.084       .  S
C1222      C1226   1.506       .  S
C1223      C1228   1.408   1_565  A
C1223      C1232   1.397       .  A
C1224      H1240   1.110       .  S
C1224      H1241   1.110   1_565  S
C1224      H1242   1.111       .  S
C1226      H1237   1.111   1_455  S
C1226      H1238   1.110       .  S
C1226      H1239   1.110       .  S
C1228      C1229   1.402       .  A
C1228      C1233   1.506       .  S
C1229      C1230   1.404   1_545  A
C1229      H1234   1.086       .  S
C1230      C1231   1.419       .  A
C1231      C1232   1.398       .  A
C1231      C1235   1.510       .  S
C1232      H1236   1.086       .  S
C1233      H1243   1.111       .  S
C1233      H1245   1.110       .  S
C1235      H2686   1.111       .  S
C1235      H1247   1.110       .  S
C1235      H1248   1.109       .  S
H1246      C2675   1.111       .  S
C1249      C1250   1.400       .  A
C1249      C1254   1.399       .  A
C1249      H1259   1.085       .  S
C1250      C1255   1.474       .  S
C1250      C1251   1.410       .  A
C1251      C1252   1.404       .  A
C1251      C1256   1.505       .  S
C1252      C1253   1.402       .  A
C1252      H1257   1.084       .  S
C1253      C1254   1.412       .  A
C1254      C1258   1.508       .  S
C1255      C1260   1.409       .  A
C1255      C1264   1.400       .  A
C1256      H1272   1.110       .  S
C1256      H1273   1.110       .  S
C1256      H1274   1.111       .  S
C1258      H2709   1.111       .  S
C1258      H1270   1.109       .  S
C1258      H1271   1.108       .  S
C1260      C1261   1.403       .  A
C1260      C1265   1.505       .  S
C1261      C1262   1.402       .  A
C1261      H1266   1.084       .  S
C1262      C1263   1.416       .  A
C1263      C1264   1.399       .  A
C1263      C1267   1.510       .  S
C1264      H1268   1.085       .  S
C1265      H2715   1.111       .  S
C1265      H2716   1.110       .  S
C1265      H1277   1.110       .  S
C1267      H1278   1.110       .  S
C1267      H1279   1.108       .  S
C1267      H1280   1.111       .  S
H1269      C2698   1.110   1_455  S
H1275      C2705   1.111       .  S
H1276      C2705   1.110       .  S
C1281      C1282   1.399       .  A
C1281      C1286   1.405       .  A
C1281      H1291   1.083       .  S
C1282      C1287   1.481       .  S
C1282      C2723   1.408       .  A
C1283      C2722   1.409       .  A
C1283      C2724   1.403       .  A
C1283      C1288   1.507       .  S
C1284      C2723   1.404       .  A
C1284      C1285   1.409       .  A
C1284      H2729   1.082       .  S
C1285      C1286   1.422       .  A
C1286      C1290   1.508       .  S
C1287      C2012   1.409       .  A
C1287      C2736   1.401       .  A
C1288      H1304   1.110       .  S
C1288      H1305   1.108       .  S
C1288      H1306   1.111       .  S
H1289      C2724   1.085       .  S
C1290      H1301   1.111       .  S
C1290      H1302   1.110       .  S
C1290      H1303   1.110       .  S
C1292      C2007   1.410       .  A
C1292      C1293   1.400   1_545  A
C1292      C2737   1.508   1_445  S
C1293      C1294   1.404   1_565  A
C1293      H1298   1.084       .  S
C1295      C1296   1.407       .  A
C1295      C1299   1.507       .  S
C1296      C2727   1.401       .  A
C1296      H1300   1.083       .  S
C1297      C2732   1.508   1_565  S
C1297      H1307   1.111       .  S
C1297      H1308   1.110   1_565  S
C1297      H2749   1.109       .  S
C1299      H1310   1.110       .  S
C1299      H1311   1.110       .  S
C1299      H1312   1.111       .  S
H1309      C2737   1.109   1_455  S
C1313      C1314   1.400       .  A
C1313      C1318   1.407       .  A
C1313      H1323   1.084       .  S
C1314      C1319   1.483       .  S
C1314      C1315   1.409       .  A
C1315      C1316   1.403       .  A
C1315      C1320   1.507       .  S
C1316      C1317   1.408       .  A
C1316      H1321   1.084       .  S
C1317      C1318   1.422       .  A
C1318      C1322   1.507       .  S
C1319      C1324   1.410       .  A
C1319      C1328   1.400       .  A
C1320      H1336   1.110       .  S
C1320      H1337   1.109       .  S
C1320      H1338   1.111       .  S
C1322      H1333   1.111       .  S
C1322      H1334   1.110       .  S
C1322      H1335   1.110       .  S
C1324      C1325   1.407       .  A
C1324      C1329   1.506       .  S
C1325      C1326   1.405       .  A
C1325      H1330   1.084       .  S
C1326      C1327   1.419       .  A
C1327      C1328   1.403       .  A
C1327      C1331   1.510       .  S
C1328      H1332   1.084       .  S
C1329      H1339   1.111       .  S
C1329      H1340   1.110       .  S
C1329      H1341   1.110       .  S
C1331      H1342   1.110       .  S
C1331      H1343   1.106       .  S
C1331      H1344   1.111       .  S
C1345      C1346   1.399       .  A
C1345      C1350   1.405       .  A
C1345      H1355   1.084       .  S
C1346      C1351   1.469       .  S
C1346      C1347   1.407       .  A
C1347      C1348   1.394       .  A
C1347      C1352   1.510       .  S
C1348      C1349   1.406       .  A
C1348      H1353   1.083       .  S
C1349      C1350   1.418       .  A
C1350      C1354   1.507       .  S
C1351      C1356   1.410       .  A
C1351      C1360   1.398       .  A
C1352      H1368   1.110       .  S
C1352      H1369   1.109       .  S
C1352      H1370   1.111       .  S
C1354      H1365   1.110       .  S
C1354      H1366   1.111       .  S
C1354      H1367   1.110       .  S
C1356      C1357   1.402       .  A
C1356      C1361   1.507       .  S
C1357      C1358   1.403       .  A
C1357      H1362   1.084       .  S
C1358      C1359   1.417       .  A
C1359      C1360   1.397       .  A
C1359      C1363   1.510       .  S
C1360      H1364   1.085       .  S
C1361      H1371   1.110       .  S
C1361      H1372   1.110       .  S
C1361      H1373   1.110       .  S
C1363      H1374   1.111       .  S
C1363      H1375   1.108       .  S
C1363      H1376   1.111       .  S
C1377      C1378   1.400       .  A
C1377      C1382   1.404       .  A
C1377      H1387   1.084       .  S
C1378      C1383   1.469   1_556  S
C1378      C1379   1.406       .  A
C1379      C1380   1.395       .  A
C1379      C1384   1.508       .  S
C1380      C1381   1.407       .  A
C1380      H1385   1.084       .  S
C1381      C1382   1.417       .  A
C1382      C1386   1.507       .  S
C1383      C1388   1.410       .  A
C1383      C1392   1.398       .  A
C1384      H1400   1.110       .  S
C1384      H1401   1.109       .  S
C1384      H1402   1.111       .  S
C1386      H1397   1.110       .  S
C1386      H1398   1.111       .  S
C1386      H1399   1.110       .  S
C1388      C1389   1.403       .  A
C1388      C1393   1.507       .  S
C1389      C1390   1.403       .  A
C1389      H1394   1.084       .  S
C1390      C1391   1.415       .  A
C1391      C1392   1.397       .  A
C1391      C1395   1.509       .  S
C1392      H1396   1.085   1_554  S
C1393      H1403   1.111       .  S
C1393      H1404   1.110   1_554  S
C1393      H1405   1.110   1_554  S
C1395      H1406   1.111       .  S
C1395      H1407   1.108       .  S
C1395      H1408   1.111       .  S
C1409      C1410   1.399       .  A
C1409      C1414   1.400       .  A
C1409      H1419   1.085       .  S
C1410      C1415   1.474       .  S
C1410      C1411   1.408       .  A
C1411      C1412   1.403       .  A
C1411      C1416   1.506       .  S
C1412      C1413   1.406       .  A
C1412      H1417   1.085       .  S
C1413      C1414   1.418       .  A
C1414      C1418   1.509       .  S
C1415      C1420   1.408       .  A
C1415      C1424   1.399       .  A
C1416      H1432   1.110       .  S
C1416      H1433   1.110       .  S
C1416      H1434   1.111       .  S
C1418      H1429   1.111       .  S
C1418      H1430   1.109       .  S
C1418      H1431   1.111       .  S
C1420      C1421   1.400       .  A
C1420      C1425   1.507       .  S
C1421      C1422   1.407       .  A
C1421      H1426   1.084       .  S
C1422      C1423   1.419       .  A
C1423      C1424   1.403       .  A
C1423      C1427   1.507       .  S
C1424      H1428   1.085       .  S
C1425      H1435   1.111       .  S
C1425      H1436   1.110       .  S
C1425      H1437   1.110       .  S
C1427      H1438   1.111       .  S
C1427      H1439   1.110       .  S
C1427      H1440   1.110       .  S
In1441     O1443   2.232       .  S
In1441     O1444   2.260       .  S
In1441     O1452   2.215       .  S
In1441     O1446   2.239       .  S
In1441     O1448   2.249       .  S
In1441     O1449   2.245       .  S
In1441     O1450   2.198       .  S
In1441     O1453   2.232       .  S
C1442      O1448   1.265       .  A
C1442      O1450   1.259       .  A
C1442      C2101   1.478       .  S
O1443      C1451   1.261       .  A
O1444      C1451   1.265       .  A
C1445      O1452   1.262       .  A
C1445      O1446   1.265       .  A
C1445      C2133   1.477       .  S
C1447      O1449   1.266       .  A
C1447      O1453   1.260       .  A
C1447      C1607   1.462       .  S
C1451      C1538   1.468       .  S
In1454     O1456   2.225       .  S
In1454     O1457   2.256       .  S
In1454     O1465   2.224       .  S
In1454     O1459   2.229       .  S
In1454     O1461   2.245       .  S
In1454     O1462   2.238       .  S
In1454     O1463   2.199       .  S
In1454     O1466   2.239       .  S
C1455      O1461   1.264       .  A
C1455      O1463   1.260       .  A
C1455      C2069   1.479       .  S
O1456      C1464   1.259       .  A
O1457      C1464   1.264       .  A
C1458      O1465   1.264       .  A
C1458      O1459   1.263       .  A
C1458      C2142   1.481       .  S
C1460      O1462   1.265       .  A
C1460      O1466   1.260       .  A
C1460      C1555   1.462       .  S
C1464      C1642   1.463       .  S
In1467     O1469   2.253       .  S
In1467     O1470   2.262       .  S
In1467     O1478   2.240       .  S
In1467     O1472   2.249       .  S
In1467     O1474   2.258       .  S
In1467     O1475   2.246       .  S
In1467     O1476   2.212       .  S
In1467     O1479   2.241       .  S
C1468      O1474   1.264       .  A
C1468      O1476   1.258       .  A
C1468      C2078   1.470       .  S
O1469      C1477   1.260       .  A
O1470      C1477   1.261       .  A
C1471      O1478   1.263       .  A
C1471      O1472   1.262       .  A
C1471      C2037   1.492       .  S
C1473      O1475   1.265       .  A
C1473      O1479   1.260       .  A
C1473      C1633   1.466       .  S
C1477      C1564   1.471       .  S
In1480     O1482   2.238       .  S
In1480     O1483   2.264       .  S
In1480     O1491   2.229       .  S
In1480     O1485   2.242       .  S
In1480     O1487   2.246       .  S
In1480     O1488   2.242       .  S
In1480     O1489   2.206       .  S
In1480     O1492   2.235       .  S
C1481      O1487   1.264       .  A
C1481      O1489   1.258       .  A
C1481      C2110   1.462       .  S
O1482      C1490   1.260       .  A
O1483      C1490   1.263       .  A
C1484      O1491   1.263       .  A
C1484      O1485   1.264       .  A
C1484      C2046   1.476       .  S
C1486      O1488   1.266       .  A
C1486      O1492   1.260       .  A
C1486      C1529   1.463       .  S
C1490      C1616   1.469       .  S
In1493     O1495   2.231       .  S
In1493     O1496   2.257       .  S
In1493     O1504   2.235       .  S
In1493     O1498   2.243       .  S
In1493     O1500   2.254       .  S
In1493     O1501   2.247       .  S
In1493     O1502   2.217       .  S
In1493     O1505   2.238       .  S
C1494      O1500   1.263       .  A
C1494      O1502   1.258       .  A
C1494      C1973   1.463       .  S
O1495      C1503   1.261       .  A
O1496      C1503   1.265       .  A
C1497      O1504   1.262       .  A
C1497      O1498   1.264       .  A
C1497      C2005   1.490       .  S
C1499      O1501   1.264       .  A
C1499      O1505   1.259       .  A
C1499      C1646   1.464       .  S
C1503      C1551   1.466       .  S
In1506     O1508   2.240       .  S
In1506     O1509   2.268       .  S
In1506     O1517   2.231       .  S
In1506     O1511   2.252       .  S
In1506     O1513   2.252       .  S
In1506     O1514   2.246       .  S
In1506     O1515   2.195       .  S
In1506     O1518   2.243       .  S
C1507      O1513   1.266       .  A
C1507      O1515   1.257       .  A
C1507      C1950   1.473       .  S
O1508      C1516   1.261       .  A
O1509      C1516   1.264       .  A
C1510      O1517   1.263       .  A
C1510      O1511   1.263       .  A
C1510      C2014   1.482       .  S
C1512      O1514   1.265       .  A
C1512      O1518   1.260       .  A
C1516      C1629   1.471       .  S
In1519     O1521   2.230       .  S
In1519     O1522   2.248       .  S
In1519     O1530   2.228       .  S
In1519     O1524   2.254       .  S
In1519     O1526   2.254       .  S
In1519     O1527   2.257       .  S
In1519     O1528   2.228       .  S
In1519     O1531   2.233       .  S
C1520      O1526   1.267       .  A
C1520      O1528   1.261       .  A
C1520      C1909   1.493       .  S
O1521      C1529   1.260       .  A
O1522      C1529   1.266       .  A
C1523      O1530   1.261       .  A
C1523      O1524   1.266       .  A
C1523      C1877   1.476       .  S
C1525      O1527   1.266       .  A
C1525      O1531   1.262       .  A
C1525      C1581   1.469       .  S
In1532     O1534   2.243       .  S
In1532     O1535   2.250       .  S
In1532     O1543   2.229       .  S
In1532     O1537   2.255       .  S
In1532     O1539   2.245       .  S
In1532     O1540   2.264       .  S
In1532     O1541   2.237       .  S
In1532     O1544   2.236       .  S
C1533      O1539   1.263       .  A
C1533      O1541   1.261       .  A
C1533      C1886   1.476       .  S
O1534      C1542   1.258       .  A
O1535      C1542   1.263       .  A
C1536      O1543   1.260       .  A
C1536      O1537   1.262       .  A
C1536      C1854   1.478       .  S
C1538      O1540   1.263       .  A
C1538      O1544   1.261       .  A
In1545     O1547   2.227       .  S
In1545     O1548   2.251       .  S
In1545     O1556   2.219       .  S
In1545     O1550   2.259       .  S
In1545     O1552   2.244       .  S
In1545     O1553   2.255       .  S
In1545     O1554   2.231       .  S
In1545     O1557   2.233       .  S
C1546      O1552   1.266       .  A
C1546      O1554   1.262       .  A
C1546      C1845   1.478       .  S
O1547      C1555   1.259       .  A
O1548      C1555   1.266       .  A
C1549      O1556   1.260       .  A
C1549      O1550   1.265       .  A
C1549      C1813   1.478       .  S
C1551      O1553   1.264       .  A
C1551      O1557   1.262       .  A
In1558     O1560   2.234       .  S
In1558     O1561   2.250       .  S
In1558     O1569   2.222       .  S
In1558     O1563   2.262       .  S
In1558     O1565   2.252       .  S
In1558     O1566   2.253       .  S
In1558     O1567   2.215       .  S
In1558     O1570   2.242       .  S
C1559      O1565   1.268       .  A
C1559      O1567   1.261       .  A
C1559      C1822   1.484       .  S
O1560      C1568   1.260       .  A
O1561      C1568   1.266       .  A
C1562      O1569   1.259       .  A
C1562      O1563   1.267       .  A
C1562      C1918   1.490       .  S
C1564      O1566   1.265       .  A
C1564      O1570   1.262       .  A
In1571     O1573   2.241       .  S
In1571     O1574   2.258       .  S
In1571     O1582   2.222       .  S
In1571     O2296   2.233       .  S
In1571     O1578   2.252       .  S
In1571     O2299   2.242       .  S
In1571     O1580   2.207       .  S
In1571     O2303   2.234       .  S
C1572      O1578   1.263       .  A
C1572      O1580   1.260       .  A
C1572      C1941   1.481       .  S
O1573      C1581   1.261       .  A
O1574      C1581   1.262       .  A
C1575      O2302   1.263       .  A
C1575      O1576   1.262       .  A
C1575      C1790   1.483   1_565  S
O1576     In2291   2.234       .  S
C1577      O1579   1.265   1_545  A
C1577      O1583   1.259       .  A
C1577      C1620   1.462       .  S
O1579     In2291   2.247       .  S
O1582      C2295   1.263       .  A
O1583     In2291   2.234   1_545  S
In1584     O1586   2.226       .  S
In1584     O1587   2.243       .  S
In1584     O1595   2.223       .  S
In1584     O1589   2.231       .  S
In1584     O1591   2.248       .  S
In1584     O1592   2.243       .  S
In1584     O1593   2.212       .  S
C1585      O1591   1.265       .  A
C1585      O1593   1.260       .  A
C1585      C1982   1.467       .  S
O1586      C1594   1.261       .  A
O1587      C1594   1.264       .  A
C1588      O1595   1.261       .  A
C1588      O1589   1.264       .  A
C1588      C1781   1.471       .  S
C1590      O1592   1.265   1_455  A
C1594      C1603   1.460       .  S
In1597     O1599   2.233       .  S
In1597     O1600   2.239       .  S
In1597     O1608   2.212       .  S
In1597     O1602   2.247       .  S
In1597     O1604   2.241       .  S
In1597     O1605   2.245       .  S
In1597     O1606   2.212       .  S
In1597     O1609   2.227       .  S
C1598      O1604   1.267       .  A
C1598      O1606   1.260       .  A
C1598      C1758   1.481       .  S
O1599      C1607   1.261       .  A
O1600      C1607   1.265       .  A
C1601      O1608   1.261       .  A
C1601      O1602   1.264       .  A
C1601      C1717   1.485       .  S
C1603      O1605   1.263       .  A
C1603      O1609   1.261       .  A
In1610     O1612   2.237       .  S
In1610     O1613   2.243       .  S
In1610     O1621   2.209       .  S
In1610     O1615   2.251       .  S
In1610     O1617   2.243       .  S
In1610     O1618   2.261       .  S
In1610     O1619   2.228       .  S
In1610     O1622   2.236       .  S
C1611      O1617   1.264       .  A
C1611      O1619   1.263       .  A
C1611      C1726   1.488       .  S
O1612      C1620   1.260       .  A
O1613      C1620   1.265       .  A
C1614      O1621   1.258       .  A
C1614      O1615   1.266       .  A
C1614      C1685   1.477       .  S
C1616      O1618   1.264       .  A
C1616      O1622   1.261       .  A
In1623     O1625   2.240       .  S
In1623     O1626   2.256       .  S
In1623     O1634   2.219       .  S
In1623     O1628   2.254       .  S
In1623     O2350   2.241       .  S
In1623     O1631   2.265       .  S
In1623     O1632   2.221       .  S
In1623     O1635   2.236       .  S
C1624      O2350   1.265       .  A
C1624      O1632   1.262       .  A
C1624      C2414   1.474       .  S
O1625      C1633   1.259       .  A
O1626      C1633   1.265       .  A
C1627      O1634   1.259       .  A
C1627      O1628   1.264       .  A
C1627      C1653   1.472       .  S
C1629      O1631   1.265       .  A
C1629      O1635   1.261       .  A
O1630     In2343   2.241       .  S
O1630      C2344   1.265       .  A
In1636     O2358   2.235       .  S
In1636     O1639   2.244       .  S
In1636     O1647   2.206       .  S
In1636     O1641   2.254       .  S
In1636     O1643   2.252       .  S
In1636     O1644   2.250       .  S
In1636     O1645   2.229       .  S
In1636     O1648   2.225       .  S
C1637      O1643   1.265       .  A
C1637      O1645   1.261       .  A
C1637      C1662   1.474       .  S
O1638     In2356   2.235   1_545  S
O1638      C1646   1.260       .  A
O1639      C2366   1.264       .  A
C1640      O1647   1.258       .  A
C1640      O1641   1.267       .  A
C1640      C1749   1.482       .  S
C1642      O1644   1.264       .  A
C1642      O1648   1.261       .  A
C1646      O2359   1.265   1_545  A
C1649      C1650   1.400       .  A
C1649      C1654   1.402       .  A
C1649      H1659   1.084       .  S
C1650      C1655   1.478       .  S
C1650      C1651   1.411       .  A
C1651      C1652   1.403       .  A
C1651      C2376   1.506       .  S
C1652      C1653   1.403       .  A
C1652      H2377   1.084       .  S
C1653      C1654   1.416       .  A
C1654      C1658   1.508       .  S
C1655      C1660   1.409       .  A
C1655      C1664   1.401       .  A
C1656      C2371   1.506       .  S
C1656      H2392   1.110       .  S
C1656      H1673   1.110   1_565  S
C1656      H1674   1.111   1_565  S
H1657      C2372   1.084       .  S
C1658      H1669   1.111       .  S
C1658      H1670   1.110       .  S
C1658      H1671   1.108       .  S
C1660      C1661   1.404       .  A
C1660      C2385   1.506       .  S
C1661      C1662   1.403       .  A
C1661      H2386   1.084       .  S
C1662      C1663   1.417       .  A
C1663      C1664   1.403       .  A
C1663      C1667   1.510       .  S
C1664      H1668   1.085       .  S
C1665      C2380   1.506       .  S
C1665      H1675   1.111       .  S
C1665      H1676   1.110       .  S
C1665      H1677   1.110       .  S
H1666      C2381   1.084       .  S
C1667      H1678   1.111       .  S
C1667      H1679   1.107       .  S
C1667      H1680   1.110       .  S
H1672      C2376   1.110       .  S
C1681      C1682   1.398       .  A
C1681      C1686   1.400       .  A
C1681      H1691   1.084       .  S
C1682      C1687   1.475       .  S
C1682      C1683   1.409       .  A
C1683      C1684   1.403       .  A
C1683      C1688   1.506       .  S
C1684      C1685   1.405       .  A
C1684      H1689   1.084       .  S
C1685      C1686   1.419       .  A
C1686      C1690   1.509       .  S
C1687      C1692   1.410       .  A
C1687      C1696   1.398   1_545  A
C1688      H1704   1.110       .  S
C1688      H1705   1.110       .  S
C1688      H1706   1.111       .  S
C1690      H1701   1.109       .  S
C1690      H1702   1.110       .  S
C1690      H1703   1.111       .  S
C1692      C1693   1.402       .  A
C1692      C1697   1.507       .  S
C1693      C1694   1.404   1_545  A
C1693      H1698   1.084       .  S
C1694      C2344   1.475       .  S
C1694      C2415   1.418       .  A
C1695      C2414   1.418       .  A
C1695      C2416   1.400       .  A
C1695      C1699   1.509       .  S
C1696      C2415   1.400       .  A
C1696      H2420   1.085       .  S
C1697      H1707   1.111       .  S
C1697      H1708   1.110       .  S
C1697      H1709   1.111       .  S
C1699      H1710   1.110       .  S
C1699      H1711   1.107       .  S
C1699      H1712   1.111       .  S
H1700      C2416   1.085       .  S
C1713      C1714   1.400       .  A
C1713      C1718   1.405       .  A
C1713      H1723   1.084       .  S
C1714      C1719   1.479   1_556  S
C1714      C1715   1.407       .  A
C1715      C1716   1.399       .  A
C1715      C1720   1.508       .  S
C1716      C1717   1.409       .  A
C1716      H1721   1.085       .  S
C1717      C1718   1.424       .  A
C1718      C1722   1.510       .  S
C1719      C1724   1.410       .  A
C1719      C1728   1.400       .  A
C1720      H1736   1.109   1_556  S
C1720      H1737   1.110       .  S
C1720      H1738   1.111       .  S
C1722      H1733   1.111       .  S
C1722      H1734   1.110       .  S
C1722      H1735   1.099       .  S
C1724      C1725   1.401       .  A
C1724      C1729   1.509   1_554  S
C1725      C1726   1.408       .  A
C1725      H1730   1.084       .  S
C1726      C1727   1.421       .  A
C1727      C1728   1.405       .  A
C1727      C1731   1.507       .  S
C1728      H1732   1.084       .  S
C1729      H1739   1.111       .  S
C1729      H1740   1.109       .  S
C1729      H1741   1.111       .  S
C1731      H1742   1.111       .  S
C1731      H1743   1.110       .  S
C1731      H1744   1.110       .  S
C1745      C1746   1.396       .  A
C1745      C1750   1.399       .  A
C1745      H1755   1.085       .  S
C1746      C1751   1.472       .  S
C1746      C2467   1.408       .  A
C1747      C2466   1.408       .  A
C1747      C1748   1.404       .  A
C1747      C1752   1.506       .  S
C1748      C1749   1.407       .  A
C1748      H1753   1.083       .  S
C1749      C2470   1.422       .  A
C1750      C2469   1.421       .  A
C1750      C1754   1.509       .  S
C1751      C1756   1.407       .  A
C1751      C1760   1.397       .  A
C1752      H1768   1.110       .  S
C1752      H1769   1.110       .  S
C1752      H1770   1.111       .  S
C1754      H1765   1.110   1_545  S
C1754      H1766   1.109       .  S
C1754      H1767   1.111       .  S
C1756      C1757   1.400       .  A
C1756      C1761   1.507   1_545  S
C1757      C1758   1.405       .  A
C1757      H1762   1.086       .  S
C1758      C1759   1.421       .  A
C1759      C1760   1.401       .  A
C1759      C1763   1.509       .  S
C1760      H1764   1.086       .  S
C1761      H1771   1.111       .  S
C1761      H1772   1.110       .  S
C1761      H2493   1.110       .  S
C1763      H1774   1.110       .  S
C1763      H1775   1.110       .  S
C1763      H1776   1.111       .  S
H1773      C2481   1.110       .  S
C1777      C1778   1.398       .  A
C1777      C1782   1.399       .  A
C1777      H1787   1.086       .  S
C1778      C1783   1.473       .  S
C1778      C1779   1.408       .  A
C1779      C1784   1.506   1_545  S
C1780      C1781   1.404       .  A
C1780      H1785   1.085       .  S
C1782      C1786   1.510       .  S
C1783      C1788   1.407       .  A
C1783      C1792   1.398   1_556  A
C1784      H1801   1.110       .  S
C1786      H1797   1.111       .  S
C1788      C1789   1.399   1_556  A
C1788      C1793   1.508       .  S
C1789      C1790   1.408       .  A
C1789      H1794   1.083       .  S
C1790      C1791   1.420       .  A
C1791      C1792   1.403       .  A
C1791      C1795   1.507       .  S
C1793      H1803   1.111       .  S
C1793      H1804   1.110       .  S
C1793      H1805   1.110       .  S
C1795      H1807   1.110   1_545  S
C1809      C1810   1.399       .  A
C1809      C1814   1.399       .  A
C1809      H1819   1.086       .  S
C1810      C1815   1.480       .  S
C1810      C1811   1.411       .  A
C1811      C1812   1.407       .  A
C1812      C1813   1.405       .  A
C1812      H1817   1.084       .  S
C1813      C1814   1.420       .  A
C1814      C1818   1.511       .  S
C1815      C1820   1.410       .  A
C1815      C1824   1.399       .  A
C1816      H1832   1.110       .  S
C1816      H1833   1.108       .  S
C1816      H1834   1.111       .  S
C1818      H1829   1.110       .  S
C1818      H1830   1.111       .  S
C1818      H1831   1.106       .  S
C1820      C1821   1.405       .  A
C1820      C1825   1.507       .  S
C1821      C1822   1.406       .  A
C1821      H1826   1.082       .  S
C1822      C1823   1.420       .  A
C1823      C1824   1.403       .  A
C1823      C1827   1.509       .  S
C1824      H1828   1.083       .  S
C1825      H1835   1.111       .  S
C1825      H1836   1.110       .  S
C1825      H1837   1.108       .  S
C1827      H1838   1.109       .  S
C1827      H1839   1.111       .  S
C1827      H1840   1.111       .  S
C1841      C1842   1.400       .  A
C1841      C1846   1.405       .  A
C1841      H1851   1.084       .  S
C1842      C1847   1.480       .  S
C1843      C1844   1.402       .  A
C1843      C1848   1.508       .  S
C1844      C1845   1.403       .  A
C1844      H1849   1.082       .  S
C1846      C1850   1.508       .  S
C1847      C1852   1.408       .  A
C1847      C1856   1.401       .  A
C1848      H1864   1.110       .  S
C1848      H1865   1.110       .  S
C1848      H1866   1.111       .  S
C1850      H1861   1.110       .  S
C1850      H1862   1.111       .  S
C1850      H1863   1.105       .  S
C1852      C1853   1.401       .  A
C1852      C1857   1.507       .  S
C1853      C1854   1.405       .  A
C1853      H1858   1.084       .  S
C1854      C1855   1.420       .  A
C1855      C1856   1.405       .  A
C1855      C1859   1.509       .  S
C1857      H1867   1.111       .  S
C1857      H1868   1.110       .  S
C1857      H1869   1.110       .  S
C1859      H1870   1.110       .  S
C1859      H1871   1.103       .  S
C1873      C1874   1.400       .  A
C1873      C1878   1.402   1_556  A
C1873      H1883   1.085       .  S
C1874      C1879   1.481       .  S
C1874      C1875   1.411   1_556  A
C1875      C1876   1.405       .  A
C1875      C1880   1.506       .  S
C1876      C1877   1.404       .  A
C1876      H1881   1.084       .  S
C1877      C1878   1.417       .  A
C1878      C1882   1.508       .  S
C1879      C1884   1.410       .  A
C1879      C1888   1.401       .  A
C1880      H1896   1.110       .  S
C1880      H1897   1.110       .  S
C1880      H1898   1.111       .  S
C1882      H1893   1.111       .  S
C1882      H1894   1.110       .  S
C1882      H1895   1.107       .  S
C1884      C1885   1.404       .  A
C1884      C1889   1.506       .  S
C1885      C1886   1.405       .  A
C1885      H1890   1.084       .  S
C1886      C1887   1.418       .  A
C1887      C1888   1.403       .  A
C1887      C1891   1.510       .  S
C1888      H1892   1.085       .  S
C1889      H1900   1.110       .  S
C1889      H1901   1.110       .  S
C1891      H1902   1.111       .  S
C1891      H1903   1.106       .  S
C1891      H1904   1.110       .  S
C1905      C1906   1.399       .  A
C1905      C1910   1.405       .  A
C1905      H1915   1.083       .  S
C1907      C1912   1.506   1_455  S
C1908      C1909   1.409       .  A
C1909      C1910   1.424       .  A
C1910      C1914   1.509       .  S
C1911      C1920   1.399   1_455  A
C1912      H1928   1.110       .  S
C1912      H1929   1.109       .  S
C1912      H1930   1.111       .  S
C1914      H1925   1.111       .  S
C1914      H1926   1.110       .  S
C1914      H1927   1.110       .  S
C1916      C1921   1.506       .  S
C1917      C1918   1.406   1_455  A
C1917      H1922   1.084       .  S
C1918      C1919   1.423       .  A
C1919      C1920   1.405       .  A
C1919      C1923   1.509       .  S
C1920      H1924   1.086       .  S
C1921      H1931   1.111       .  S
C1921      H1932   1.110       .  S
C1921      H1933   1.110       .  S
C1923      H1934   1.109       .  S
C1923      H1935   1.110       .  S
C1923      H1936   1.111       .  S
C1937      C2658   1.400   1_545  A
C1937      C1942   1.406       .  A
C1937      H1947   1.084       .  S
C1938      C1943   1.469       .  S
C1938      C2657   1.399       .  A
C1938      C1939   1.407       .  A
C1939      C1940   1.395       .  A
C1939      C1944   1.510       .  S
C1940      C1941   1.407       .  A
C1940      H1945   1.084       .  S
C1941      C2662   1.419       .  A
C1942      C2661   1.420   1_545  A
C1942      C1946   1.506       .  S
C1943      C1948   1.407       .  A
C1943      C1952   1.396       .  A
C1944      H1960   1.110       .  S
C1944      H1961   1.110       .  S
C1944      H1962   1.111       .  S
C1946      H1957   1.111       .  S
C1946      H1958   1.110   1_545  S
C1946      H1959   1.110       .  S
C1948      C1949   1.402       .  A
C1948      C1953   1.505       .  S
C1949      C1950   1.405       .  A
C1949      H1954   1.085       .  S
C1950      C1951   1.420       .  A
C1951      C1952   1.396       .  A
C1951      C1955   1.510       .  S
C1952      H1956   1.086       .  S
C1953      H1963   1.111       .  S
C1953      H2684   1.110       .  S
C1953      H1965   1.110       .  S
C1955      H1967   1.110       .  S
C1955      H1968   1.109       .  S
H1964      C2673   1.110       .  S
C1969      C1970   1.399       .  A
C1969      C1974   1.398       .  A
C1969      H1979   1.085       .  S
C1970      C1975   1.474       .  S
C1970      C1971   1.410       .  A
C1971      C1972   1.404       .  A
C1971      C1976   1.506       .  S
C1972      C1973   1.402       .  A
C1972      H1977   1.084       .  S
C1973      C1974   1.412       .  A
C1974      C1978   1.508       .  S
C1975      C1980   1.409       .  A
C1975      C1984   1.400       .  A
C1976      H1992   1.110       .  S
C1976      H1993   1.110       .  S
C1976      H1994   1.111       .  S
C1978      H1990   1.109       .  S
C1978      H1991   1.108       .  S
C1980      C1981   1.403       .  A
C1980      C1985   1.506   1_655  S
C1981      C1982   1.402       .  A
C1981      H1986   1.084   1_655  S
C1982      C1983   1.416       .  A
C1983      C1984   1.399       .  A
C1983      C1987   1.510       .  S
C1984      H1988   1.085       .  S
C1985      H1997   1.110       .  S
C1987      H1998   1.110       .  S
C1987      H1999   1.108       .  S
C1987      H2000   1.111       .  S
C2001      C2002   1.399   1_655  A
C2001      C2006   1.404       .  A
C2001      H2011   1.082       .  S
C2002      C2007   1.480       .  S
C2003      C2008   1.507       .  S
C2004      C2005   1.409   1_455  A
C2005      C2006   1.422       .  A
C2006      C2010   1.508       .  S
C2008      H2024   1.110       .  S
C2008      H2025   1.110       .  S
C2008      H2026   1.111       .  S
C2010      H2021   1.111       .  S
C2010      H2022   1.110       .  S
C2010      H2023   1.110       .  S
C2012      C2013   1.400       .  A
C2013      C2014   1.405       .  A
C2013      H2018   1.085       .  S
C2014      C2735   1.421       .  A
C2015      C2734   1.421       .  A
C2015      C2016   1.407       .  A
C2015      C2019   1.508       .  S
C2016      H2020   1.086       .  S
C2017      H2027   1.111       .  S
C2017      H2028   1.110   1_455  S
C2019      H2030   1.111       .  S
C2019      H2031   1.105       .  S
C2019      H2032   1.111       .  S
C2033      C2034   1.399       .  A
C2033      C2038   1.407       .  A
C2033      H2043   1.084       .  S
C2034      C2039   1.481       .  S
C2034      C2035   1.408       .  A
C2035      C2036   1.403       .  A
C2035      C2040   1.507       .  S
C2036      C2037   1.409       .  A
C2036      H2041   1.084       .  S
C2037      C2038   1.422       .  A
C2038      C2042   1.507       .  S
C2039      C2044   1.410       .  A
C2039      C2048   1.400       .  A
C2040      H2056   1.110       .  S
C2040      H2057   1.110       .  S
C2040      H2058   1.111       .  S
C2042      H2053   1.111       .  S
C2042      H2054   1.110       .  S
C2042      H2055   1.110       .  S
C2044      C2045   1.405       .  A
C2044      C2049   1.506       .  S
C2045      C2046   1.405       .  A
C2045      H2050   1.084       .  S
C2046      C2047   1.418       .  A
C2047      C2048   1.402       .  A
C2047      C2051   1.510       .  S
C2048      H2052   1.084       .  S
C2049      H2059   1.111       .  S
C2049      H2060   1.110       .  S
C2049      H2061   1.110       .  S
C2051      H2062   1.110       .  S
C2051      H2063   1.106       .  S
C2051      H2064   1.111       .  S
C2065      C2066   1.399       .  A
C2065      C2070   1.405       .  A
C2065      H2075   1.084       .  S
C2066      C2071   1.470       .  S
C2066      C2067   1.407       .  A
C2067      C2068   1.394       .  A
C2067      C2072   1.509       .  S
C2068      C2069   1.406       .  A
C2068      H2073   1.083       .  S
C2069      C2070   1.419       .  A
C2070      C2074   1.507       .  S
C2071      C2076   1.410       .  A
C2071      C2080   1.397       .  A
C2072      H2088   1.110       .  S
C2072      H2089   1.110       .  S
C2072      H2090   1.111       .  S
C2074      H2085   1.110       .  S
C2074      H2086   1.111       .  S
C2074      H2087   1.110       .  S
C2076      C2077   1.403       .  A
C2076      C2081   1.507       .  S
C2077      C2078   1.403       .  A
C2077      H2082   1.083       .  S
C2078      C2079   1.417       .  A
C2079      C2080   1.397       .  A
C2079      C2083   1.510       .  S
C2080      H2084   1.085       .  S
C2081      H2091   1.110       .  S
C2081      H2092   1.110       .  S
C2081      H2093   1.110       .  S
C2083      H2094   1.111       .  S
C2083      H2095   1.107       .  S
C2083      H2096   1.110       .  S
C2097      C2098   1.399       .  A
C2097      C2102   1.403       .  A
C2097      H2107   1.084       .  S
C2098      C2103   1.467   1_556  S
C2098      C2099   1.406       .  A
C2099      C2100   1.395       .  A
C2099      C2104   1.509       .  S
C2100      C2101   1.407       .  A
C2100      H2105   1.083       .  S
C2101      C2102   1.418       .  A
C2102      C2106   1.506       .  S
C2103      C2108   1.409       .  A
C2103      C2112   1.398       .  A
C2104      H2120   1.110       .  S
C2104      H2121   1.109       .  S
C2104      H2122   1.111       .  S
C2106      H2117   1.110       .  S
C2106      H2118   1.111       .  S
C2106      H2119   1.110       .  S
C2108      C2109   1.401       .  A
C2108      C2113   1.507       .  S
C2109      C2110   1.402       .  A
C2109      H2114   1.084       .  S
C2110      C2111   1.415       .  A
C2111      C2112   1.396       .  A
C2111      C2115   1.510       .  S
C2112      H2116   1.085   1_554  S
C2113      H2123   1.111       .  S
C2113      H2124   1.110   1_554  S
C2113      H2125   1.110   1_554  S
C2115      H2126   1.111       .  S
C2115      H2127   1.108       .  S
C2115      H2128   1.111       .  S
C2129      C2130   1.398       .  A
C2129      C2134   1.400       .  A
C2129      H2139   1.085       .  S
C2130      C2135   1.474       .  S
C2130      C2131   1.408       .  A
C2131      C2132   1.403       .  A
C2131      C2136   1.506       .  S
C2132      C2133   1.405       .  A
C2132      H2137   1.084       .  S
C2133      C2134   1.418       .  A
C2134      C2138   1.509       .  S
C2135      C2140   1.407       .  A
C2135      C2144   1.399       .  A
C2136      H2152   1.110       .  S
C2136      H2153   1.110       .  S
C2136      H2154   1.111       .  S
C2138      H2149   1.111       .  S
C2138      H2150   1.109       .  S
C2138      H2151   1.111       .  S
C2140      C2141   1.399       .  A
C2140      C2145   1.507       .  S
C2141      C2142   1.406       .  A
C2141      H2146   1.083       .  S
C2142      C2143   1.419       .  A
C2143      C2144   1.403       .  A
C2143      C2147   1.508       .  S
C2144      H2148   1.085       .  S
C2145      H2155   1.111       .  S
C2145      H2156   1.110       .  S
C2145      H2157   1.110       .  S
C2147      H2158   1.111       .  S
C2147      H2159   1.110       .  S
C2147      H2160   1.110       .  S
In2161     O2163   2.230       .  S
In2161     O2164   2.261       .  S
In2161     O2172   2.220       .  S
In2161     O2166   2.234       .  S
In2161     O2168   2.247       .  S
In2161     O2169   2.241       .  S
In2161     O2170   2.193       .  S
In2161     O2173   2.232       .  S
C2162      O2168   1.265       .  A
C2162      O2170   1.259       .  A
C2162      C2821   1.476       .  S
O2163      C2171   1.261       .  A
O2164      C2171   1.265       .  A
C2165      O2172   1.262       .  A
C2165      O2166   1.264       .  A
C2165      C2853   1.476       .  S
C2167      O2169   1.266       .  A
C2167      O2173   1.260       .  A
C2167      C2327   1.461       .  S
C2171      C2258   1.468       .  S
In2174     O2176   2.230       .  S
In2174     O2177   2.260       .  S
In2174     O2185   2.223       .  S
In2174     O2179   2.229       .  S
In2174     O2181   2.245       .  S
In2174     O2182   2.235       .  S
In2174     O2183   2.194       .  S
In2174     O2186   2.240       .  S
C2175      O2181   1.264       .  A
C2175      O2183   1.260       .  A
C2175      C2789   1.477       .  S
O2176      C2184   1.260       .  A
O2177      C2184   1.263       .  A
C2178      O2185   1.263       .  A
C2178      O2179   1.263       .  A
C2178      C2862   1.481       .  S
C2180      O2182   1.265       .  A
C2180      O2186   1.260       .  A
C2180      C2275   1.462       .  S
C2184      C2362   1.465       .  S
In2187     O2189   2.250       .  S
In2187     O2190   2.262       .  S
In2187     O2198   2.243       .  S
In2187     O2192   2.249       .  S
In2187     O2194   2.259       .  S
In2187     O2195   2.246       .  S
In2187     O2196   2.214       .  S
In2187     O2199   2.239       .  S
C2188      O2194   1.264       .  A
C2188      O2196   1.258       .  A
C2188      C2798   1.470       .  S
O2189      C2197   1.260       .  A
O2190      C2197   1.261       .  A
C2191      O2198   1.263       .  A
C2191      O2192   1.262       .  A
C2191      C2757   1.493       .  S
C2193      O2195   1.265       .  A
C2193      O2199   1.260       .  A
C2193      C2353   1.464       .  S
C2197      C2284   1.470       .  S
In2200     O2202   2.238       .  S
In2200     O2203   2.265       .  S
In2200     O2211   2.237       .  S
In2200     O2205   2.246       .  S
In2200     O2207   2.253       .  S
In2200     O2208   2.244       .  S
In2200     O2209   2.213       .  S
In2200     O2212   2.234       .  S
C2201      O2207   1.264       .  A
C2201      O2209   1.257       .  A
C2201      C2830   1.465       .  S
O2202      C2210   1.259       .  A
O2203      C2210   1.262       .  A
C2204      O2211   1.263       .  A
C2204      O2205   1.263       .  A
C2204      C2766   1.478       .  S
C2206      O2208   1.266       .  A
C2206      O2212   1.260       .  A
C2206      C2249   1.463       .  S
C2210      C2336   1.468       .  S
In2213     O2215   2.234       .  S
In2213     O2216   2.260       .  S
In2213     O2224   2.236       .  S
In2213     O2218   2.239       .  S
In2213     O2220   2.253       .  S
In2213     O2221   2.244       .  S
In2213     O2222   2.218       .  S
In2213     O2225   2.241       .  S
C2214      O2220   1.262       .  A
C2214      O2222   1.258       .  A
C2214      C2693   1.461       .  S
O2215      C2223   1.259       .  A
O2216      C2223   1.263       .  A
C2217      O2224   1.261       .  A
C2217      O2218   1.263       .  A
C2217      C2725   1.486       .  S
C2219      O2221   1.263       .  A
C2219      O2225   1.260       .  A
C2219      C2366   1.463       .  S
C2223      C2271   1.466       .  S
In2226     O2228   2.235       .  S
In2226     O2229   2.268       .  S
In2226     O2237   2.233       .  S
In2226     O2231   2.253   1_565  S
In2226     O2233   2.253       .  S
In2226     O2234   2.246       .  S
In2226     O2235   2.202       .  S
In2226     O2238   2.245       .  S
C2227      O2233   1.265       .  A
C2227      O2235   1.257       .  A
C2227      C2670   1.474       .  S
O2228      C2236   1.260       .  A
O2229      C2236   1.263       .  A
C2230      O2237   1.263       .  A
C2230      O2231   1.263   1_565  A
C2230      C2734   1.482   1_565  S
C2232      O2234   1.265       .  A
C2232      O2238   1.260       .  A
C2236      C2349   1.469       .  S
In2239     O2241   2.233       .  S
In2239     O2242   2.245       .  S
In2239     O2250   2.226       .  S
In2239     O2244   2.256       .  S
In2239     O2246   2.249       .  S
In2239     O2247   2.257       .  S
In2239     O2248   2.230       .  S
In2239     O2251   2.236       .  S
C2240      O2246   1.267       .  A
C2240      O2248   1.261       .  A
C2240      C2629   1.492       .  S
O2241      C2249   1.260       .  A
O2242      C2249   1.266       .  A
C2243      O2250   1.260       .  A
C2243      O2244   1.266       .  A
C2243      C2597   1.477       .  S
C2245      O2247   1.266       .  A
C2245      O2251   1.262       .  A
C2245      C2301   1.470       .  S
In2252     O2254   2.240       .  S
In2252     O2255   2.251       .  S
In2252     O2263   2.229       .  S
In2252     O2257   2.256       .  S
In2252     O2259   2.241       .  S
In2252     O2260   2.265       .  S
In2252     O2261   2.237       .  S
In2252     O2264   2.234       .  S
C2253      O2259   1.263       .  A
C2253      O2261   1.262       .  A
C2253      C2606   1.476       .  S
O2254      C2262   1.258       .  A
O2255      C2262   1.263       .  A
C2256      O2263   1.260       .  A
C2256      O2257   1.262       .  A
C2256      C2574   1.476       .  S
C2258      O2260   1.264       .  A
C2258      O2264   1.261       .  A
In2265     O2267   2.226       .  S
In2265     O2268   2.254       .  S
In2265     O2276   2.218       .  S
In2265     O2270   2.257       .  S
In2265     O2272   2.239       .  S
In2265     O2273   2.257       .  S
In2265     O2274   2.227       .  S
In2265     O2277   2.233       .  S
C2266      O2272   1.265       .  A
C2266      O2274   1.262       .  A
C2266      C2565   1.474       .  S
O2267      C2275   1.258       .  A
O2268      C2275   1.266       .  A
C2269      O2276   1.260       .  A
C2269      O2270   1.264       .  A
C2269      C2533   1.476       .  S
C2271      O2273   1.264       .  A
C2271      O2277   1.261       .  A
In2278     O2280   2.236       .  S
In2278     O2281   2.255       .  S
In2278     O2289   2.219       .  S
In2278     O2283   2.264       .  S
In2278     O2285   2.255       .  S
In2278     O2286   2.253       .  S
In2278     O2287   2.213       .  S
In2278     O2290   2.239       .  S
C2279      O2285   1.268       .  A
C2279      O2287   1.261       .  A
C2279      C2542   1.485       .  S
O2280      C2288   1.260       .  A
O2281      C2288   1.266       .  A
C2282      O2289   1.258       .  A
C2282      O2283   1.268       .  A
C2282      C2638   1.492       .  S
C2284      O2286   1.265       .  A
C2284      O2290   1.262       .  A
In2291     O2293   2.245       .  S
In2291     O2294   2.260       .  S
In2291     O2302   2.225       .  S
In2291     O2298   2.258       .  S
In2291     O2300   2.206       .  S
C2292      O2298   1.263       .  A
C2292      O2300   1.259       .  A
C2292      C2661   1.483       .  S
O2293      C2301   1.261       .  A
O2294      C2301   1.262       .  A
C2295      O2296   1.263       .  A
C2295      C2510   1.482       .  S
C2297      O2299   1.265       .  A
C2297      O2303   1.259       .  A
C2297      C2340   1.461       .  S
In2304     O2306   2.229       .  S
In2304     O2307   2.245       .  S
In2304     O2315   2.223       .  S
In2304     O2309   2.234       .  S
In2304     O2311   2.246       .  S
In2304     O2312   2.241       .  S
In2304     O2313   2.214       .  S
C2305      O2311   1.264       .  A
C2305      O2313   1.259       .  A
C2305      C2702   1.465       .  S
O2306      C2314   1.261       .  A
O2307      C2314   1.264       .  A
C2308      O2315   1.262       .  A
C2308      O2309   1.264       .  A
C2308      C2501   1.472       .  S
C2310      O2312   1.265   1_455  A
C2314      C2323   1.461       .  S
In2317     O2319   2.230       .  S
In2317     O2320   2.239       .  S
In2317     O2328   2.212       .  S
In2317     O2322   2.247       .  S
In2317     O2324   2.239       .  S
In2317     O2325   2.247       .  S
In2317     O2326   2.215       .  S
In2317     O2329   2.229       .  S
C2318      O2324   1.266       .  A
C2318      O2326   1.260       .  A
C2318      C2478   1.482       .  S
O2319      C2327   1.260       .  A
O2320      C2327   1.266       .  A
C2321      O2328   1.261       .  A
C2321      O2322   1.263       .  A
C2321      C2437   1.483       .  S
C2323      O2325   1.263       .  A
C2323      O2329   1.260       .  A
In2330     O2332   2.233       .  S
In2330     O2333   2.245       .  S
In2330     O2341   2.207       .  S
In2330     O2335   2.246       .  S
In2330     O2337   2.240       .  S
In2330     O2338   2.260       .  S
In2330     O2339   2.225       .  S
In2330     O2342   2.234       .  S
C2331      O2337   1.263       .  A
C2331      O2339   1.263       .  A
C2331      C2446   1.487       .  S
O2332      C2340   1.259       .  A
O2333      C2340   1.265       .  A
C2334      O2341   1.258       .  A
C2334      O2335   1.265       .  A
C2334      C2405   1.476       .  S
C2336      O2338   1.264       .  A
C2336      O2342   1.261       .  A
In2343     O2345   2.237       .  S
In2343     O2346   2.248       .  S
In2343     O2354   2.218       .  S
In2343     O2348   2.253       .  S
In2343     O2351   2.264       .  S
In2343     O2352   2.220       .  S
In2343     O2355   2.231       .  S
C2344      O2352   1.262       .  A
O2345      C2353   1.259       .  A
O2346      C2353   1.265       .  A
C2347      O2354   1.259       .  A
C2347      O2348   1.264       .  A
C2347      C2373   1.471       .  S
C2349      O2351   1.265       .  A
C2349      O2355   1.261       .  A
In2356     O2359   2.245       .  S
In2356     O2367   2.203       .  S
In2356     O2361   2.248   1_565  S
In2356     O2363   2.248       .  S
In2356     O2364   2.256       .  S
In2356     O2365   2.225       .  S
In2356     O2368   2.227       .  S
C2357      O2363   1.265       .  A
C2357      O2365   1.262       .  A
C2357      C2382   1.473       .  S
O2358      C2366   1.260       .  A
C2360      O2367   1.258   1_545  A
C2360      O2361   1.267       .  A
C2360      C2469   1.479       .  S
C2362      O2364   1.265       .  A
C2362      O2368   1.261       .  A
C2369      C2370   1.400       .  A
C2369      C2374   1.401       .  A
C2369      H2379   1.084       .  S
C2370      C2375   1.477       .  S
C2370      C2371   1.411       .  A
C2371      C2372   1.403       .  A
C2372      C2373   1.403       .  A
C2373      C2374   1.416       .  A
C2374      C2378   1.508       .  S
C2375      C2380   1.410   1_565  A
C2375      C2384   1.400       .  A
C2376      H2393   1.110       .  S
C2376      H2394   1.111       .  S
C2378      H2389   1.111       .  S
C2378      H2390   1.110       .  S
C2378      H2391   1.108       .  S
C2380      C2381   1.404       .  A
C2381      C2382   1.403   1_545  A
C2382      C2383   1.417       .  A
C2383      C2384   1.401       .  A
C2383      C2387   1.510       .  S
C2384      H2388   1.085       .  S
C2385      H2395   1.111       .  S
C2385      H2396   1.110       .  S
C2385      H2397   1.110       .  S
C2387      H2398   1.111       .  S
C2387      H2399   1.107       .  S
C2387      H2400   1.110       .  S
C2401      C2402   1.398       .  A
C2401      C2406   1.399       .  A
C2401      H2411   1.084       .  S
C2402      C2407   1.474       .  S
C2402      C2403   1.409       .  A
C2403      C2404   1.402       .  A
C2403      C2408   1.506       .  S
C2404      C2405   1.404       .  A
C2404      H2409   1.084       .  S
C2405      C2406   1.419       .  A
C2406      C2410   1.510       .  S
C2407      C2412   1.410       .  A
C2407      C2416   1.398       .  A
C2408      H2424   1.110       .  S
C2408      H2425   1.110       .  S
C2408      H2426   1.111       .  S
C2410      H2421   1.109       .  S
C2410      H2422   1.109       .  S
C2410      H2423   1.111       .  S
C2412      C2413   1.402       .  A
C2412      C2417   1.507       .  S
C2413      C2414   1.404       .  A
C2413      H2418   1.084       .  S
C2415      C2419   1.509       .  S
C2417      H2427   1.111       .  S
C2417      H2428   1.110       .  S
C2417      H2429   1.111       .  S
C2419      H2430   1.110       .  S
C2419      H2431   1.107       .  S
C2419      H2432   1.111       .  S
C2433      C2434   1.400       .  A
C2433      C2438   1.405       .  A
C2433      H2443   1.085       .  S
C2434      C2439   1.477   1_556  S
C2434      C2435   1.406       .  A
C2435      C2436   1.398       .  A
C2435      C2440   1.508       .  S
C2436      C2437   1.408       .  A
C2436      H2441   1.085       .  S
C2437      C2438   1.424       .  A
C2438      C2442   1.510       .  S
C2439      C2444   1.409       .  A
C2439      C2448   1.399       .  A
C2440      H2456   1.109   1_556  S
C2440      H2457   1.110       .  S
C2440      H2458   1.111       .  S
C2442      H2453   1.111       .  S
C2442      H2454   1.110       .  S
C2442      H2455   1.099       .  S
C2444      C2445   1.400       .  A
C2444      C2449   1.508   1_554  S
C2445      C2446   1.407       .  A
C2445      H2450   1.084       .  S
C2446      C2447   1.421       .  A
C2447      C2448   1.404       .  A
C2447      C2451   1.507       .  S
C2448      H2452   1.085       .  S
C2449      H2459   1.111       .  S
C2449      H2460   1.109       .  S
C2449      H2461   1.111       .  S
C2451      H2462   1.111       .  S
C2451      H2463   1.110       .  S
C2451      H2464   1.110       .  S
C2465      C2466   1.396       .  A
C2465      C2470   1.399       .  A
C2465      H2475   1.085       .  S
C2466      C2471   1.474       .  S
C2467      C2468   1.403       .  A
C2467      C2472   1.506       .  S
C2468      C2469   1.406       .  A
C2468      H2473   1.083       .  S
C2470      C2474   1.510       .  S
C2471      C2476   1.408       .  A
C2471      C2480   1.397       .  A
C2472      H2488   1.110       .  S
C2472      H2489   1.110       .  S
C2472      H2490   1.111       .  S
C2474      H2485   1.110       .  S
C2474      H2486   1.110       .  S
C2474      H2487   1.111       .  S
C2476      C2477   1.401       .  A
C2476      C2481   1.506       .  S
C2477      C2478   1.405       .  A
C2477      H2482   1.086       .  S
C2478      C2479   1.421       .  A
C2479      C2480   1.401       .  A
C2479      C2483   1.509       .  S
C2480      H2484   1.086       .  S
C2481      H2491   1.111       .  S
C2481      H2492   1.110       .  S
C2483      H2494   1.110       .  S
C2483      H2495   1.111       .  S
C2483      H2496   1.111       .  S
C2497      C2498   1.398       .  A
C2497      C2502   1.399       .  A
C2497      H2507   1.085       .  S
C2498      C2503   1.473       .  S
C2498      C2499   1.408       .  A
C2499      C2504   1.506       .  S
C2500      C2501   1.404       .  A
C2500      H2505   1.085       .  S
C2502      C2506   1.510       .  S
C2503      C2508   1.408       .  A
C2503      C2512   1.398   1_556  A
C2504      H2521   1.110       .  S
C2506      H2517   1.111       .  S
C2508      C2509   1.399   1_556  A
C2508      C2513   1.508       .  S
C2509      C2510   1.407       .  A
C2509      H2514   1.084       .  S
C2510      C2511   1.419       .  A
C2511      C2512   1.402       .  A
C2511      C2515   1.507       .  S
C2513      H2523   1.111       .  S
C2513      H2524   1.110       .  S
C2513      H2525   1.110       .  S
C2515      H2527   1.110       .  S
C2529      C2530   1.399       .  A
C2529      C2534   1.398       .  A
C2529      H2539   1.086       .  S
C2530      C2535   1.480       .  S
C2530      C2531   1.412       .  A
C2531      C2532   1.407       .  A
C2532      C2533   1.405       .  A
C2532      H2537   1.085       .  S
C2533      C2534   1.418       .  A
C2534      C2538   1.511       .  S
C2535      C2540   1.411       .  A
C2535      C2544   1.399       .  A
C2536      H2552   1.110       .  S
C2536      H2553   1.108       .  S
C2536      H2554   1.111       .  S
C2538      H2549   1.110       .  S
C2538      H2550   1.111       .  S
C2538      H2551   1.106       .  S
C2540      C2541   1.406       .  A
C2540      C2545   1.507       .  S
C2541      C2542   1.406       .  A
C2541      H2546   1.082       .  S
C2542      C2543   1.420       .  A
C2543      C2544   1.402       .  A
C2543      C2547   1.509       .  S
C2544      H2548   1.083       .  S
C2545      H2555   1.111       .  S
C2545      H2556   1.110       .  S
C2545      H2557   1.108       .  S
C2547      H2558   1.110       .  S
C2547      H2559   1.111       .  S
C2547      H2560   1.111       .  S
C2561      C2562   1.401       .  A
C2561      C2566   1.405       .  A
C2561      H2571   1.084       .  S
C2562      C2567   1.480       .  S
C2563      C2564   1.401       .  A
C2563      C2568   1.508       .  S
C2564      C2565   1.403       .  A
C2564      H2569   1.083       .  S
C2566      C2570   1.508       .  S
C2567      C2572   1.408       .  A
C2567      C2576   1.401       .  A
C2568      H2584   1.110       .  S
C2568      H2585   1.110       .  S
C2568      H2586   1.111       .  S
C2570      H2581   1.110       .  S
C2570      H2582   1.111       .  S
C2570      H2583   1.106       .  S
C2572      C2573   1.402       .  A
C2572      C2577   1.506       .  S
C2573      C2574   1.404       .  A
C2573      H2578   1.084       .  S
C2574      C2575   1.419       .  A
C2575      C2576   1.405       .  A
C2575      C2579   1.509       .  S
C2577      H2587   1.111       .  S
C2577      H2588   1.110       .  S
C2577      H2589   1.110       .  S
C2579      H2590   1.110       .  S
C2579      H2591   1.104       .  S
C2593      C2594   1.400       .  A
C2593      C2598   1.403   1_556  A
C2593      H2603   1.084       .  S
C2594      C2599   1.481       .  S
C2594      C2595   1.411   1_556  A
C2595      C2596   1.405       .  A
C2595      C2600   1.506       .  S
C2596      C2597   1.404       .  A
C2596      H2601   1.084       .  S
C2597      C2598   1.417       .  A
C2598      C2602   1.508       .  S
C2599      C2604   1.410       .  A
C2599      C2608   1.402       .  A
C2600      H2616   1.110       .  S
C2600      H2617   1.110       .  S
C2600      H2618   1.111       .  S
C2602      H2613   1.111       .  S
C2602      H2614   1.110       .  S
C2602      H2615   1.107       .  S
C2604      C2605   1.403       .  A
C2604      C2609   1.506       .  S
C2605      C2606   1.404       .  A
C2605      H2610   1.084       .  S
C2606      C2607   1.418       .  A
C2607      C2608   1.403       .  A
C2607      C2611   1.510       .  S
C2608      H2612   1.085       .  S
C2609      H2620   1.110       .  S
C2609      H2621   1.110       .  S
C2611      H2622   1.111       .  S
C2611      H2623   1.106       .  S
C2611      H2624   1.110       .  S
C2625      C2626   1.400       .  A
C2625      C2630   1.405       .  A
C2625      H2635   1.083       .  S
C2627      C2632   1.506   1_455  S
C2628      C2629   1.408       .  A
C2629      C2630   1.423       .  A
C2630      C2634   1.509       .  S
C2631      C2640   1.398       .  A
C2632      H2648   1.110       .  S
C2632      H2649   1.110       .  S
C2632      H2650   1.111       .  S
C2634      H2645   1.111       .  S
C2634      H2646   1.110       .  S
C2634      H2647   1.111       .  S
C2636      C2641   1.506       .  S
C2637      C2638   1.407       .  A
C2637      H2642   1.084       .  S
C2638      C2639   1.425       .  A
C2639      C2640   1.404       .  A
C2639      C2643   1.509       .  S
C2640      H2644   1.085       .  S
C2641      H2651   1.111       .  S
C2641      H2652   1.110       .  S
C2641      H2653   1.111       .  S
C2643      H2654   1.109       .  S
C2643      H2655   1.110       .  S
C2643      H2656   1.111       .  S
C2657      C2662   1.405       .  A
C2657      H2667   1.083       .  S
C2658      C2663   1.471       .  S
C2658      C2659   1.407       .  A
C2659      C2660   1.395       .  A
C2659      C2664   1.510       .  S
C2660      C2661   1.406       .  A
C2660      H2665   1.084       .  S
C2662      C2666   1.506       .  S
C2663      C2668   1.408   1_565  A
C2663      C2672   1.397       .  A
C2664      H2680   1.110       .  S
C2664      H2681   1.110   1_565  S
C2664      H2682   1.111       .  S
C2666      H2677   1.111       .  S
C2666      H2678   1.110       .  S
C2666      H2679   1.110       .  S
C2668      C2669   1.402       .  A
C2668      C2673   1.506       .  S
C2669      C2670   1.405   1_545  A
C2669      H2674   1.086       .  S
C2670      C2671   1.419       .  A
C2671      C2672   1.397       .  A
C2671      C2675   1.510       .  S
C2672      H2676   1.086       .  S
C2673      H2683   1.111       .  S
C2673      H2685   1.110       .  S
C2675      H2687   1.110       .  S
C2675      H2688   1.109       .  S
C2689      C2690   1.400       .  A
C2689      C2694   1.399       .  A
C2689      H2699   1.085       .  S
C2690      C2695   1.473       .  S
C2690      C2691   1.410       .  A
C2691      C2692   1.402       .  A
C2691      C2696   1.506       .  S
C2692      C2693   1.402       .  A
C2692      H2697   1.084       .  S
C2693      C2694   1.412       .  A
C2694      C2698   1.508       .  S
C2695      C2700   1.409       .  A
C2695      C2704   1.400       .  A
C2696      H2712   1.110       .  S
C2696      H2713   1.110       .  S
C2696      H2714   1.111       .  S
C2698      H2710   1.110       .  S
C2698      H2711   1.108       .  S
C2700      C2701   1.402       .  A
C2700      C2705   1.505   1_655  S
C2701      C2702   1.402       .  A
C2701      H2706   1.084   1_655  S
C2702      C2703   1.415       .  A
C2703      C2704   1.399       .  A
C2703      C2707   1.510       .  S
C2704      H2708   1.085       .  S
C2705      H2717   1.110       .  S
C2707      H2718   1.111       .  S
C2707      H2719   1.108       .  S
C2707      H2720   1.111       .  S
C2721      C2722   1.399   1_655  A
C2721      C2726   1.403       .  A
C2721      H2731   1.087       .  S
C2722      C2727   1.479       .  S
C2723      C2728   1.506       .  S
C2724      C2725   1.407   1_455  A
C2725      C2726   1.420       .  A
C2726      C2730   1.508       .  S
C2728      H2744   1.110       .  S
C2728      H2745   1.110       .  S
C2728      H2746   1.111       .  S
C2730      H2741   1.111       .  S
C2730      H2742   1.110       .  S
C2730      H2743   1.110       .  S
C2732      C2733   1.400   1_545  A
C2733      C2734   1.404   1_565  A
C2733      H2738   1.084       .  S
C2735      C2736   1.407       .  A
C2735      C2739   1.507       .  S
C2736      H2740   1.086       .  S
C2737      H2747   1.111       .  S
C2737      H2748   1.110       .  S
C2739      H2750   1.111       .  S
C2739      H2751   1.105       .  S
C2739      H2752   1.111       .  S
C2753      C2754   1.400       .  A
C2753      C2758   1.407       .  A
C2753      H2763   1.084       .  S
C2754      C2759   1.483       .  S
C2754      C2755   1.409       .  A
C2755      C2756   1.404       .  A
C2755      C2760   1.507       .  S
C2756      C2757   1.409       .  A
C2756      H2761   1.084       .  S
C2757      C2758   1.422       .  A
C2758      C2762   1.507       .  S
C2759      C2764   1.411       .  A
C2759      C2768   1.400       .  A
C2760      H2776   1.110       .  S
C2760      H2777   1.110       .  S
C2760      H2778   1.111       .  S
C2762      H2773   1.111       .  S
C2762      H2774   1.110       .  S
C2762      H2775   1.110       .  S
C2764      C2765   1.407       .  A
C2764      C2769   1.506       .  S
C2765      C2766   1.405       .  A
C2765      H2770   1.084       .  S
C2766      C2767   1.418       .  A
C2767      C2768   1.403       .  A
C2767      C2771   1.510       .  S
C2768      H2772   1.084       .  S
C2769      H2779   1.111       .  S
C2769      H2780   1.110       .  S
C2769      H2781   1.110       .  S
C2771      H2782   1.110       .  S
C2771      H2783   1.106       .  S
C2771      H2784   1.111       .  S
C2785      C2786   1.400       .  A
C2785      C2790   1.405       .  A
C2785      H2795   1.084       .  S
C2786      C2791   1.470       .  S
C2786      C2787   1.407       .  A
C2787      C2788   1.393       .  A
C2787      C2792   1.509       .  S
C2788      C2789   1.406       .  A
C2788      H2793   1.083       .  S
C2789      C2790   1.418       .  A
C2790      C2794   1.507       .  S
C2791      C2796   1.410       .  A
C2791      C2800   1.397       .  A
C2792      H2808   1.110       .  S
C2792      H2809   1.109       .  S
C2792      H2810   1.111       .  S
C2794      H2805   1.110       .  S
C2794      H2806   1.111       .  S
C2794      H2807   1.110       .  S
C2796      C2797   1.403       .  A
C2796      C2801   1.507       .  S
C2797      C2798   1.403       .  A
C2797      H2802   1.084       .  S
C2798      C2799   1.417       .  A
C2799      C2800   1.397       .  A
C2799      C2803   1.509       .  S
C2800      H2804   1.085       .  S
C2801      H2811   1.110       .  S
C2801      H2812   1.110       .  S
C2801      H2813   1.110       .  S
C2803      H2814   1.111       .  S
C2803      H2815   1.108       .  S
C2803      H2816   1.111       .  S
C2817      C2818   1.400       .  A
C2817      C2822   1.404       .  A
C2817      H2827   1.084       .  S
C2818      C2823   1.469   1_556  S
C2818      C2819   1.406       .  A
C2819      C2820   1.394       .  A
C2819      C2824   1.508       .  S
C2820      C2821   1.406       .  A
C2820      H2825   1.084       .  S
C2821      C2822   1.417       .  A
C2822      C2826   1.507       .  S
C2823      C2828   1.410       .  A
C2823      C2832   1.398       .  A
C2824      H2840   1.110       .  S
C2824      H2841   1.109       .  S
C2824      H2842   1.111       .  S
C2826      H2837   1.110       .  S
C2826      H2838   1.111       .  S
C2826      H2839   1.110       .  S
C2828      C2829   1.402       .  A
C2828      C2833   1.507       .  S
C2829      C2830   1.403       .  A
C2829      H2834   1.084       .  S
C2830      C2831   1.415       .  A
C2831      C2832   1.397       .  A
C2831      C2835   1.509       .  S
C2832      H2836   1.085   1_554  S
C2833      H2843   1.111       .  S
C2833      H2844   1.110   1_554  S
C2833      H2845   1.110   1_554  S
C2835      H2846   1.111       .  S
C2835      H2847   1.108       .  S
C2835      H2848   1.111       .  S
C2849      C2850   1.399       .  A
C2849      C2854   1.400       .  A
C2849      H2859   1.084       .  S
C2850      C2855   1.473       .  S
C2850      C2851   1.408       .  A
C2851      C2852   1.402       .  A
C2851      C2856   1.506       .  S
C2852      C2853   1.405       .  A
C2852      H2857   1.084       .  S
C2853      C2854   1.417       .  A
C2854      C2858   1.509       .  S
C2855      C2860   1.407       .  A
C2855      C2864   1.398       .  A
C2856      H2872   1.110       .  S
C2856      H2873   1.110       .  S
C2856      H2874   1.111       .  S
C2858      H2869   1.111       .  S
C2858      H2870   1.109       .  S
C2858      H2871   1.111       .  S
C2860      C2861   1.399       .  A
C2860      C2865   1.507       .  S
C2861      C2862   1.407       .  A
C2861      H2866   1.084       .  S
C2862      C2863   1.419       .  A
C2863      C2864   1.402       .  A
C2863      C2867   1.508       .  S
C2864      H2868   1.085       .  S
C2865      H2875   1.111       .  S
C2865      H2876   1.110       .  S
C2865      H2877   1.110       .  S
C2867      H2878   1.111       .  S
C2867      H2879   1.109       .  S
C2867      H2880   1.110       .  S
