geometry optimzed in LAMMPS
_audit_creation_date              2020-11-30 
_audit_creation_method            'lammps2cif' 
_symmetry_space_group_name_H-M    'P1' 
_symmetry_Int_Tables_number       1 
_symmetry_cell_setting            triclinic 
loop_ 
_symmetry_equiv_pos_as_xyz 
  x,y,z 
_cell_length_a                    44.1180904 
_cell_length_b                    43.95510094506017 
_cell_length_c                    43.89987496192144 
_cell_angle_alpha                 89.8355175389261 
_cell_angle_beta                  90.26774021615213 
_cell_angle_gamma                 89.49454781851914 
loop_ 
_atom_site_label 
_atom_site_type_symbol 
_atom_site_fract_x 
_atom_site_fract_y 
_atom_site_fract_z 
_atom_site_charge 
O1          O  0.53328742  0.95513976  0.82695342    -0.84400
O2          O  0.57000900  0.96958450  0.77635004    -0.81500
C3          C  0.56561293  0.94611319  0.76120959     0.99000
O4          O  0.54064292  0.93407616  0.76468890    -0.81500
O5          O  0.48344137  0.92540798  0.75669105    -0.84100
C6          C  0.45592196  0.93070659  0.75959594     1.03600
O7          O  0.44802254  0.94360546  0.78365960    -0.76900
O8          O  0.48386462  0.96034017  0.83294477    -0.77100
C9          C  0.50748253  0.94317984  0.83102054     1.03500
O10         O  0.51792957  0.01970444  0.82905519    -0.84400
O11         O  0.54195164  0.02465611  0.77035673    -0.81500
C12         C  0.54380101  0.01808215  0.74214252     0.99100
O13         O  0.53600516  0.99240469  0.73147996    -0.81500
O14         O  0.47770946  0.98272654  0.72424236    -0.84100
C15         C  0.45611232  0.99977153  0.73242550     1.03500
O16         O  0.44899723  0.00281071  0.76015223    -0.76900
O17         O  0.47443872  0.02532436  0.80780472    -0.77100
C18         C  0.49700738  0.03701992  0.82001527     1.03500
Cr19       Cr  0.53757626  0.99110278  0.80006911     1.93700
Cr20       Cr  0.50924812  0.95937843  0.74589847     1.93200
Cr21       Cr  0.46694236  0.98258354  0.79635846     1.39100
O22         O  0.50383055  0.97893026  0.77989467    -1.22200
O23         O  0.48031730  0.89595576  0.83162008    -0.84400
O24         O  0.45277933  0.86837428  0.78026827    -0.81500
C25         C  0.45030813  0.85045265  0.75796704     0.99000
O26         O  0.46523984  0.82616910  0.75750878    -0.81500
O27         O  0.52415398  0.84459536  0.75336297    -0.84100
C28         C  0.55194693  0.84834345  0.75833540     1.03600
O29         O  0.56139041  0.84954622  0.78579503    -0.76900
O30         O  0.52883463  0.89474118  0.81937245    -0.77100
C31         C  0.50540224  0.90941415  0.82779576     1.03500
O32         O  0.47368021  0.84055541  0.86398392    -0.84400
O33         O  0.44487944  0.81302837  0.81377711    -0.81500
C34         C  0.45427899  0.78647935  0.80653504     0.99100
O35         O  0.48184923  0.78221903  0.80023299    -0.81500
O36         O  0.54186042  0.79328825  0.78792803    -0.84100
C37         C  0.55452073  0.78857944  0.81310258     1.03500
O38         O  0.55045282  0.80710784  0.83487642    -0.76900
O39         O  0.52118208  0.85491255  0.86859477    -0.77100
C40         C  0.49574200  0.84888608  0.88033845     1.03500
Cr41       Cr  0.46614473  0.85329158  0.82148024     1.93700
Cr42       Cr  0.50329858  0.81398309  0.77766189     1.93200
Cr43       Cr  0.53740264  0.85064294  0.82579350     1.39100
O44         O  0.50216693  0.83944042  0.80883037    -1.22200
O45         O  0.46716700  0.84005731  0.92438924    -0.84400
O46         O  0.43691832  0.79135252  0.94563820    -0.81500
C47         C  0.44645781  0.76786061  0.93159454     0.99000
O48         O  0.47428173  0.76131590  0.93101944    -0.81500
O49         O  0.53446661  0.75981685  0.94497846    -0.84100
C50         C  0.54386963  0.77439308  0.92233523     1.03600
O51         O  0.54039250  0.80271211  0.92061172    -0.76900
O52         O  0.51290613  0.85653128  0.93188599    -0.77100
C53         C  0.49171395  0.84947754  0.91376747     1.03500
O54         O  0.47944741  0.85930089  0.98954992    -0.84400
O55         O  0.45026994  0.80986973  0.00696564    -0.81500
C56         C  0.44714311  0.78178547  0.00991460     0.99100
O57         O  0.46092704  0.76337719  0.99309795    -0.81500
O58         O  0.51943266  0.77166146  0.00628844    -0.84100
C59         C  0.54673897  0.77926137  0.00569460     1.03500
O60         O  0.55646350  0.79605523  0.98439469    -0.76900
O61         O  0.52660294  0.84665734  0.99728268    -0.77100
C62         C  0.50139370  0.85421370  0.00797228     1.03500
Cr63       Cr  0.46088350  0.82499155  0.96617484     1.93700
Cr64       Cr  0.49739867  0.76656232  0.96857626     1.93200
Cr65       Cr  0.53159792  0.82496198  0.95868362     1.39100
O66         O  0.49644998  0.80566044  0.96433664    -1.22200
O67         O  0.47875398  0.12293534  0.86381767    -0.84400
O68         O  0.45208486  0.17173394  0.83063906    -0.81500
C69         C  0.44983015  0.19230067  0.81041522     0.99000
O70         O  0.46624454  0.19080760  0.78728365    -0.81500
O71         O  0.52416005  0.19913088  0.80879017    -0.84100
C72         C  0.55149949  0.19453595  0.81582821     1.03600
O73         O  0.56078492  0.16741518  0.82120449    -0.76900
O74         O  0.52711101  0.13519574  0.86674015    -0.77100
C75         C  0.50238313  0.12802219  0.87951263     1.03500
O76         O  0.47677120  0.08628652  0.81078328    -0.84400
O77         O  0.44820307  0.13369133  0.77773261    -0.81500
C78         C  0.45950316  0.13851582  0.75154043     0.99100
O79         O  0.48729066  0.14443099  0.74920838    -0.81500
O80         O  0.54589125  0.16037658  0.76323654    -0.84100
C81         C  0.55922648  0.13520091  0.76145985     1.03500
O82         O  0.55483429  0.11512076  0.78173844    -0.76900
O83         O  0.52351815  0.08359253  0.82862476    -0.77100
C84         C  0.49914456  0.07077220  0.82050535     1.03500
Cr85       Cr  0.46725363  0.12954838  0.81984251     1.93700
Cr86       Cr  0.50574571  0.17095670  0.77986535     1.93200
Cr87       Cr  0.53853735  0.12670765  0.82341397     1.39100
O88         O  0.50380870  0.14213686  0.80815419    -1.22200
O89         O  0.52299443  0.13002390  0.93058381    -0.84400
O90         O  0.55916096  0.18044578  0.91698592    -0.81500
C91         C  0.55080712  0.19918430  0.89715297     0.99000
O92         O  0.52348461  0.19913530  0.88988435    -0.81500
O93         O  0.46511185  0.19373848  0.89458069    -0.84100
C94         C  0.43911119  0.19774729  0.90430561     1.03600
O95         O  0.43320162  0.18420215  0.92847343    -0.76900
O96         O  0.47303653  0.13274921  0.92441400    -0.77100
C97         C  0.49948683  0.12883517  0.91334950     1.03500
O98         O  0.52508432  0.15478115  0.99534977    -0.84400
O99         O  0.54785123  0.20562559  0.97309113    -0.81500
C100        C  0.54407835  0.23232344  0.96259108     0.99100
O101        O  0.52535505  0.23836973  0.94157318    -0.81500
O102        O  0.46509897  0.23318382  0.94844820    -0.84100
C103        C  0.45386734  0.22528588  0.97393206     1.03500
O104        O  0.45564354  0.19805211  0.98408667    -0.76900
O105        O  0.47901269  0.13921883  0.99106022    -0.77100
C106        C  0.50188517  0.14406258  0.00735736     1.03500
Cr107      Cr  0.53505036  0.16769285  0.95315151     1.93700
Cr108      Cr  0.49477971  0.21446177  0.91990704     1.93200
Cr109      Cr  0.46417990  0.16421468  0.95575020     1.39100
O110        O  0.49848202  0.18314704  0.94446072    -1.22200
O111        O  0.48369639  0.09111607  0.09336865    -0.84400
O112        O  0.45393770  0.12244740  0.14169530    -0.81500
C113        C  0.45074507  0.14245190  0.16221269     0.99000
O114        O  0.46458459  0.16701463  0.16006635    -0.81500
O115        O  0.52396407  0.14887042  0.17078542    -0.84100
C116        C  0.55185374  0.14335364  0.16711606     1.03600
O117        O  0.56189119  0.13947351  0.14009497    -0.76900
O118        O  0.53182909  0.09308743  0.10718531    -0.77100
C119        C  0.50873199  0.07782431  0.09975424     1.03500
O120        O  0.47731799  0.14469341  0.05586712    -0.84400
O121        O  0.44614777  0.17592509  0.10309439    -0.81500
C122        C  0.45550905  0.20293316  0.10828667     0.99100
O123        O  0.48304372  0.20692625  0.11525642    -0.81500
O124        O  0.54269348  0.19556425  0.13264336    -0.84100
C125        C  0.55587537  0.19905405  0.10778338     1.03500
O126        O  0.55273907  0.17922737  0.08729845    -0.76900
O127        O  0.52589264  0.13236320  0.05491020    -0.77100
C128        C  0.50142297  0.13934851  0.04112098     1.03500
Cr129      Cr  0.46841510  0.13464404  0.09946837     1.93700
Cr130      Cr  0.50362151  0.17697226  0.14198322     1.93200
Cr131      Cr  0.53988364  0.13678078  0.09859327     1.39100
O132        O  0.50389678  0.14908698  0.11298336    -1.22200
O133        O  0.52160515  0.89821436  0.09184254    -0.84400
O134        O  0.54757708  0.86632087  0.14189856    -0.81500
C135        C  0.54892626  0.84755615  0.16383273     0.99000
O136        O  0.53139436  0.82551710  0.16423018    -0.81500
O137        O  0.47550235  0.85175025  0.17057193    -0.84100
C138        C  0.44839422  0.85980621  0.16630655     1.03600
O139        O  0.43801917  0.86155983  0.13922117    -0.76900
O140        O  0.47290495  0.90210777  0.10301465    -0.77100
C141        C  0.49792842  0.91434758  0.09570939     1.03500
O142        O  0.52088818  0.84373196  0.05752328    -0.84400
O143        O  0.54891046  0.81081919  0.10771309    -0.81500
C144        C  0.53726234  0.78581020  0.11676095     0.99100
O145        O  0.50917295  0.78486847  0.12226419    -0.81500
O146        O  0.45061914  0.80314621  0.13789878    -0.84100
C147        C  0.43704620  0.79851052  0.11328084     1.03500
O148        O  0.44168761  0.81650914  0.09100956    -0.76900
O149        O  0.47367284  0.86053956  0.05454025    -0.77100
C150        C  0.49839702  0.85332529  0.04185017     1.03500
Cr151      Cr  0.53130366  0.85380012  0.10058848     1.93700
Cr152      Cr  0.49175507  0.81879882  0.14561168     1.93200
Cr153      Cr  0.45966691  0.85886236  0.09823731     1.39100
O154        O  0.49438016  0.84399238  0.11416628    -1.22200
O155        O  0.47486186  0.96282877  0.09975131    -0.84400
O156        O  0.44136629  0.97889793  0.15184819    -0.81500
C157        C  0.44544522  0.95498572  0.16649736     0.99000
O158        O  0.47035869  0.94218633  0.16373169    -0.81500
O159        O  0.52776830  0.93216915  0.16485164    -0.84100
C160        C  0.55560151  0.93584485  0.16317286     1.03600
O161        O  0.56487217  0.95228469  0.14195021    -0.76900
O162        O  0.52484146  0.96278718  0.09274992    -0.77100
C163        C  0.49947415  0.94844423  0.09472995     1.03500
O164        O  0.48896248  0.02701268  0.09499289    -0.84400
O165        O  0.46984586  0.03263953  0.15548126    -0.81500
C166        C  0.46896153  0.02617874  0.18381104     0.99100
O167        O  0.47845381  0.00087213  0.19483182    -0.81500
O168        O  0.53825825  0.98782320  0.19789380    -0.84100
C169        C  0.55802645  0.00631890  0.18874104     1.03500
O170        O  0.56144084  0.01208286  0.16060849    -0.76900
O171        O  0.53432116  0.03147038  0.11159368    -0.77100
C172        C  0.51083355  0.04378605  0.10120929     1.03500
Cr173      Cr  0.47238472  0.99901691  0.12613141     1.93700
Cr174      Cr  0.50382226  0.96676602  0.17873234     1.93200
Cr175      Cr  0.54286680  0.98922762  0.12628494     1.39100
O176        O  0.50703971  0.98642487  0.14452568    -1.22200
O177        O  0.85481756  0.49033309  0.99961082    -0.84400
O178        O  0.80208939  0.46374817  0.01672617    -0.81500
C179        C  0.77377329  0.46101653  0.01787992     0.99000
O180        O  0.75665905  0.47592980  0.00026618    -0.81500
O181        O  0.76409098  0.53532998  0.01134829    -0.84100
C182        C  0.77338917  0.56222660  0.01137281     1.03600
O183        O  0.79291435  0.57065931  0.99201977    -0.76900
O184        O  0.84132881  0.53703965  0.00853858    -0.77100
C185        C  0.85033247  0.51167777  0.01843829     1.03500
O186        O  0.83733949  0.47815185  0.93569904    -0.84400
O187        O  0.78709259  0.45018038  0.95575334    -0.81500
C188        C  0.76444688  0.45914602  0.94026405     0.99100
O189        O  0.75869432  0.48709942  0.93727416    -0.81500
O190        O  0.75769978  0.54841735  0.94833387    -0.84100
C191        C  0.77464739  0.55886005  0.92791821     1.03500
O192        O  0.80280040  0.55468945  0.92887039    -0.76900
O193        O  0.85411074  0.52444608  0.94175270    -0.77100
C194        C  0.84935264  0.50151310  0.92478579     1.03500
Cr195      Cr  0.81989460  0.47340832  0.97649174     1.93700
Cr196      Cr  0.76205607  0.51174489  0.97413999     1.93200
Cr197      Cr  0.82220432  0.54407347  0.96821989     1.39100
O198        O  0.80145001  0.50965321  0.97274271    -1.22200
O199        O  0.90208380  0.51931796  0.84035822    -0.84400
O200        O  0.87099229  0.54432743  0.78916085    -0.81500
C201        C  0.85173745  0.54584386  0.76762054     0.99000
O202        O  0.82886874  0.52925194  0.76832879    -0.81500
O203        O  0.84989903  0.47118770  0.76419028    -0.84100
C204        C  0.85549842  0.44375010  0.76988029     1.03600
O205        O  0.85998969  0.43537419  0.79738560    -0.76900
O206        O  0.90472257  0.47031607  0.82970071    -0.77100
C207        C  0.91764127  0.49519935  0.83627101     1.03500
O208        O  0.84772350  0.52426534  0.87521613    -0.84400
O209        O  0.81706741  0.55062770  0.82412814    -0.81500
C210        C  0.79124161  0.53973593  0.81725845     0.99100
O211        O  0.78847897  0.51151682  0.81363157    -0.81500
O212        O  0.80187174  0.45165141  0.80160637    -0.84100
C213        C  0.79964865  0.43939729  0.82729232     1.03500
O214        O  0.81925227  0.44477503  0.84769341    -0.76900
O215        O  0.86400677  0.47683064  0.87937991    -0.77100
C216        C  0.85512937  0.50148440  0.89147074     1.03500
Cr217      Cr  0.85852824  0.53127085  0.83153037     1.93700
Cr218      Cr  0.81987465  0.49108387  0.78977762     1.93200
Cr219      Cr  0.86109240  0.45987149  0.83699476     1.39100
O220        O  0.84679377  0.49417828  0.81980894    -1.22200
O221        O  0.96863282  0.47373272  0.83555948    -0.84400
O222        O  0.95670995  0.43459802  0.78660207    -0.81500
C223        C  0.93629885  0.44281371  0.76850812     0.99000
O224        O  0.92968919  0.47037350  0.76796293    -0.81500
O225        O  0.93368464  0.52915273  0.76861568    -0.84100
C226        C  0.94345340  0.55526928  0.76492091     1.03600
O227        O  0.96759503  0.56122511  0.77826702    -0.76900
O228        O  0.96286523  0.52377576  0.83097583    -0.77100
C229        C  0.95154658  0.49757199  0.83567665     1.03500
O230        O  0.03415201  0.47085541  0.81086841    -0.84400
O231        O  0.01305110  0.44432152  0.76203070    -0.81500
C232        C  0.00293052  0.44691426  0.73506982     0.99100
O233        O  0.98159115  0.46526817  0.72852463    -0.81500
O234        O  0.98764493  0.52661595  0.73032712    -0.84100
C235        C  0.01250266  0.53914230  0.73797259     1.03500
O236        O  0.02274232  0.53821190  0.76531446    -0.76900
O237        O  0.02925692  0.51724439  0.82575606    -0.77100
C238        C  0.04597611  0.49467923  0.82051348     1.03500
Cr239      Cr  0.99227472  0.45963034  0.79891252     1.93700
Cr240      Cr  0.95945912  0.49774765  0.75039763     1.93200
Cr241      Cr  0.99446813  0.53101566  0.79954029     1.39100
O242        O  0.98363187  0.49569582  0.78190619    -1.22200
O243        O  0.84073425  0.52763140  0.06895300    -0.84400
O244        O  0.80989161  0.55179607  0.12033217    -0.81500
C245        C  0.78462554  0.53985926  0.12791862     0.99000
O246        O  0.78338297  0.51157673  0.13286426    -0.81500
O247        O  0.80261399  0.45238052  0.14286849    -0.84100
C248        C  0.79862488  0.44170369  0.11679528     1.03600
O249        O  0.81704476  0.44794695  0.09558435    -0.76900
O250        O  0.86137078  0.48218634  0.06341398    -0.77100
C251        C  0.85143869  0.50691095  0.05201868     1.03500
O252        O  0.89667717  0.52532178  0.10203271    -0.84400
O253        O  0.86627754  0.54721496  0.15360021    -0.81500
C254        C  0.84787570  0.54765588  0.17554086     0.99100
O255        O  0.82533903  0.53078505  0.17528611    -0.81500
O256        O  0.85107095  0.47458025  0.17824820    -0.84100
C257        C  0.85772661  0.44736436  0.17267428     1.03500
O258        O  0.85968597  0.43865523  0.14511930    -0.76900
O259        O  0.90066203  0.47690905  0.11500110    -0.77100
C260        C  0.91286306  0.50204509  0.10830376     1.03500
Cr261      Cr  0.85251581  0.53483488  0.11188962     1.93700
Cr262      Cr  0.81788957  0.49253068  0.15452995     1.93200
Cr263      Cr  0.85852539  0.46414374  0.10596718     1.39100
O264        O  0.84282483  0.49733963  0.12343197    -1.22200
O265        O  0.01924390  0.49069119  0.09408553    -0.84400
O266        O  0.04404851  0.46208685  0.14334748    -0.81500
C267        C  0.05586205  0.46792605  0.16853716     0.99000
O268        O  0.06059049  0.49511601  0.17435693    -0.81500
O269        O  0.05221405  0.55068708  0.15755630    -0.84100
C270        C  0.04212698  0.57682183  0.15958044     1.03600
O271        O  0.01801072  0.58165927  0.14521780    -0.76900
O272        O  0.02854830  0.53922414  0.09715141    -0.77100
C273        C  0.03839792  0.51209223  0.09387495     1.03500
O274        O  0.95964472  0.48339051  0.12537547    -0.84400
O275        O  0.98786284  0.46137681  0.17278700    -0.81500
C276        C  0.99015744  0.47044214  0.19996473     0.99100
O277        O  0.00376583  0.49472811  0.20678650    -0.81500
O278        O  0.99524504  0.55393132  0.19344420    -0.84100
C279        C  0.96952472  0.56218372  0.18290617     1.03500
O280        O  0.96173209  0.55759091  0.15535145    -0.76900
O281        O  0.96196638  0.52583793  0.10047479    -0.77100
C282        C  0.94650227  0.50405193  0.11082577     1.03500
Cr283      Cr  0.00288402  0.47735737  0.13399494     1.93700
Cr284      Cr  0.02683019  0.52343354  0.18114775     1.93200
Cr285      Cr  0.99377866  0.54790598  0.12516803     1.39100
O286        O  0.00636123  0.51548716  0.14787889    -1.22200
O287        O  0.13756277  0.47293606  0.05537193    -0.84400
O288        O  0.16738954  0.43866256  0.10331551    -0.81500
C289        C  0.19442388  0.44735945  0.10958402     0.99000
O290        O  0.19879415  0.47491702  0.11548770    -0.81500
O291        O  0.19103804  0.53339405  0.13392743    -0.84100
C292        C  0.19380799  0.54785056  0.10964412     1.03600
O293        O  0.17386334  0.54588770  0.08896780    -0.76900
O294        O  0.12462894  0.52146304  0.05662233    -0.77100
C295        C  0.13031220  0.49746937  0.04183439     1.03500
O296        O  0.08413494  0.48064628  0.09094402    -0.84400
O297        O  0.11361001  0.44866950  0.13958224    -0.81500
C298        C  0.13275182  0.44407400  0.16063549     0.99100
O299        O  0.15806017  0.45651380  0.16005011    -0.81500
O300        O  0.14415791  0.51681864  0.17208714    -0.84100
C301        C  0.13908207  0.54480203  0.16765914     1.03500
O302        O  0.13535980  0.55474599  0.14065268    -0.76900
O303        O  0.08781313  0.52765913  0.10788072    -0.77100
C304        C  0.07191264  0.50637848  0.09729366     1.03500
Cr305      Cr  0.12696701  0.46308188  0.09841989     1.93700
Cr306      Cr  0.17031303  0.49545784  0.14265938     1.93200
Cr307      Cr  0.13127691  0.53421149  0.09968675     1.39100
O308        O  0.14239872  0.49757512  0.11338652    -1.22200
O309        O  0.09536299  0.47313947  0.81493801    -0.84400
O310        O  0.14190380  0.44508809  0.78132689    -0.81500
C311        C  0.14607701  0.45587779  0.75471748     0.99000
O312        O  0.15271080  0.48351184  0.75135086    -0.81500
O313        O  0.16711231  0.54296033  0.76472311    -0.84100
C314        C  0.14152095  0.55558117  0.76318043     1.03600
O315        O  0.12244318  0.55126336  0.78420022    -0.76900
O316        O  0.09274319  0.52034926  0.83159531    -0.77100
C317        C  0.07981166  0.49603627  0.82318915     1.03500
O318        O  0.13469371  0.47554014  0.86730493    -0.84400
O319        O  0.18154126  0.44936032  0.83358279    -0.81500
C320        C  0.20191441  0.44747407  0.81344406     0.99100
O321        O  0.19944830  0.46325391  0.78971694    -0.81500
O322        O  0.20647636  0.52102972  0.81107075    -0.84100
C323        C  0.20274747  0.54858651  0.81761820     1.03500
O324        O  0.17594713  0.55871242  0.82219084    -0.76900
O325        O  0.14649704  0.52426420  0.86869113    -0.77100
C326        C  0.14151128  0.49919545  0.88216439     1.03500
Cr327      Cr  0.13905605  0.46405677  0.82326373     1.93700
Cr328      Cr  0.17882246  0.50268401  0.78190264     1.93200
Cr329      Cr  0.13567009  0.53561260  0.82566035     1.39100
O330        O  0.15066394  0.50070748  0.81045634    -1.22200
O331        O  0.13736368  0.52675819  0.99788939    -0.84400
O332        O  0.18869442  0.56473916  0.98953475    -0.81500
C333        C  0.20122034  0.56016554  0.01460381     0.99000
O334        O  0.19869714  0.53421979  0.02538047    -0.81500
O335        O  0.20432825  0.47536949  0.03195149    -0.84100
C336        C  0.20239963  0.44771086  0.02591636     1.03600
O337        O  0.18292860  0.43982228  0.00669570    -0.76900
O338        O  0.13295683  0.47678875  0.99109607    -0.77100
C339        C  0.13212275  0.50028262  0.00837277     1.03500
O340        O  0.13902725  0.51772880  0.93328316    -0.84400
O341        O  0.19873439  0.53918413  0.93449189    -0.81500
C342        C  0.22637857  0.54075431  0.94302487     0.99100
O343        O  0.23536649  0.53178964  0.96933258    -0.81500
O344        O  0.24158580  0.47102838  0.97917954    -0.84100
C345        C  0.23480579  0.45156741  0.95922658     1.03500
O346        O  0.20786348  0.44780444  0.94999027    -0.76900
O347        O  0.15884106  0.47348449  0.92656012    -0.77100
C348        C  0.14606850  0.49658035  0.91568104     1.03500
Cr349      Cr  0.16682293  0.53353170  0.96505006     1.93700
Cr350      Cr  0.21819760  0.50310212  0.00016121     1.93200
Cr351      Cr  0.17049077  0.46283527  0.96928841     1.39100
O352        O  0.18603310  0.49917593  0.97708248    -1.22200
O353        O  0.03437051  0.86798170  0.43913995    -0.84400
O354        O  0.02354852  0.81700159  0.40176180    -0.81500
C355        C  0.04719236  0.80186796  0.40563969     0.99000
O356        O  0.05974516  0.80412258  0.43088231    -0.81500
O357        O  0.06894741  0.79872198  0.48986099    -0.84100
C358        C  0.06363378  0.80036268  0.51771872     1.03600
O359        O  0.04705812  0.82194090  0.52628775    -0.76900
O360        O  0.03108340  0.87168794  0.48939850    -0.77100
C361        C  0.04699036  0.87147857  0.46492012     1.03500
O362        O  0.97119514  0.86766743  0.45217090    -0.84400
O363        O  0.96956218  0.80772410  0.42905422    -0.81500
C364        C  0.97779300  0.77986287  0.42725899     0.99100
O365        O  0.00349134  0.77016227  0.43650868    -0.81500
O366        O  0.01531334  0.76331786  0.49569603    -0.84100
C367        C  0.99670346  0.77062207  0.51612287     1.03500
O368        O  0.98935090  0.79807656  0.52103732    -0.76900
O369        O  0.96606348  0.84656034  0.49581218    -0.77100
C370        C  0.95429245  0.85947598  0.47326684     1.03500
Cr371      Cr  0.00101585  0.83906639  0.43415982     1.93700
Cr372      Cr  0.03583849  0.78591200  0.46331554     1.93200
Cr373      Cr  0.00888565  0.83490506  0.50487599     1.39100
O374        O  0.01429323  0.81913150  0.46804212    -1.22200
O375        O  0.86772053  0.90625823  0.48656995    -0.84400
O376        O  0.81894938  0.87295346  0.51175187    -0.81500
C377        C  0.79968375  0.85187327  0.51404368     0.99000
O378        O  0.80370507  0.82714204  0.50066475    -0.81500
O379        O  0.79453230  0.84325464  0.44127136    -0.84100
C380        C  0.79880393  0.85126840  0.41404812     1.03600
O381        O  0.82567204  0.85742491  0.40522800    -0.76900
O382        O  0.85264128  0.90477892  0.43877284    -0.77100
C383        C  0.85987124  0.91982741  0.46220791     1.03500
O384        O  0.90521079  0.85325988  0.49345972    -0.84400
O385        O  0.85887830  0.82177927  0.52275805    -0.81500
C386        C  0.85699971  0.79460081  0.51295852     0.99100
O387        O  0.85263847  0.79011245  0.48484910    -0.81500
O388        O  0.83765317  0.80006899  0.42412049    -0.84100
C389        C  0.86276987  0.80005899  0.41106019     1.03500
O390        O  0.88091586  0.82178286  0.41488368    -0.76900
O391        O  0.90797422  0.87018987  0.44617405    -0.77100
C392        C  0.92073201  0.86179595  0.47094894     1.03500
Cr393      Cr  0.86189874  0.86252243  0.50047652     1.93700
Cr394      Cr  0.82462094  0.81781149  0.46278125     1.93200
Cr395      Cr  0.86564417  0.86254564  0.42922088     1.39100
O396        O  0.85098676  0.84788250  0.46411183    -1.22200
O397        O  0.84282349  0.96493410  0.43867099    -0.84400
O398        O  0.79201243  0.98815901  0.41462575    -0.81500
C399        C  0.76827691  0.97632270  0.42528709     0.99000
O400        O  0.76236886  0.97692880  0.45334355    -0.81500
O401        O  0.77051347  0.98746115  0.51375996    -0.84100
C402        C  0.78572860  0.96463116  0.52253557     1.03600
O403        O  0.81338575  0.96190909  0.51600641    -0.76900
O404        O  0.86447473  0.97071896  0.48297801    -0.77100
C405        C  0.85633572  0.95356445  0.46123595     1.03500
O406        O  0.86509899  0.02835257  0.44723913    -0.84400
O407        O  0.81187573  0.04808985  0.42257003    -0.81500
C408        C  0.78363242  0.05231512  0.42234373     0.99100
O409        O  0.76698946  0.03840159  0.44060841    -0.81500
O410        O  0.78561641  0.04958350  0.49810049    -0.84100
C411        C  0.79060884  0.04512308  0.52575252     1.03500
O412        O  0.80978518  0.02471508  0.53315577    -0.76900
O413        O  0.85758664  0.03723901  0.49555939    -0.77100
C414        C  0.86456081  0.04675336  0.46943066     1.03500
Cr415      Cr  0.82781353  0.00701174  0.43365849     1.93700
Cr416      Cr  0.77405579  0.01285207  0.47648776     1.93200
Cr417      Cr  0.83562632  0.99925087  0.50428079     1.39100
O418        O  0.81248377  0.00566903  0.47109742    -1.22200
O419        O  0.09475988  0.86001387  0.48876195    -0.84400
O420        O  0.13997278  0.82240328  0.51680576    -0.81500
C421        C  0.14280157  0.79534017  0.50680413     0.99000
O422        O  0.14755891  0.79090852  0.47888555    -0.81500
O423        O  0.16394795  0.80100605  0.41912015    -0.84100
C424        C  0.13871629  0.80142003  0.40607443     1.03600
O425        O  0.12088498  0.82387678  0.40994135    -0.76900
O426        O  0.09421701  0.87393822  0.44042815    -0.77100
C427        C  0.08055607  0.86936343  0.46534434     1.03500
O428        O  0.13652841  0.90763732  0.48343583    -0.84400
O429        O  0.18250578  0.87079613  0.50953794    -0.81500
C430        C  0.20110530  0.84882286  0.51242150     0.99100
O431        O  0.19709810  0.82496254  0.49762440    -0.81500
O432        O  0.20648028  0.84339671  0.43900872    -0.84100
C433        C  0.20230907  0.85124140  0.41175046     1.03500
O434        O  0.17580442  0.85864501  0.40249033    -0.76900
O435        O  0.14765790  0.90825468  0.43454851    -0.77100
C436        C  0.14198078  0.92230272  0.45920332     1.03500
Cr437      Cr  0.13922735  0.86391473  0.49639349     1.93700
Cr438      Cr  0.17612218  0.81817331  0.45869032     1.93200
Cr439      Cr  0.13593830  0.86492968  0.42487925     1.39100
O440        O  0.15001864  0.84935810  0.45999581    -1.22200
O441        O  0.15068055  0.96618151  0.48836574    -0.84400
O442        O  0.19799595  0.97662913  0.52616149    -0.81500
C443        C  0.21548717  0.95457558  0.52001916     0.99000
O444        O  0.22183806  0.94952675  0.49265639    -0.81500
O445        O  0.24037647  0.95973074  0.43403059    -0.84100
C446        C  0.22273323  0.94795664  0.41499741     1.03600
O447        O  0.19513544  0.95444772  0.41489751    -0.76900
O448        O  0.14467061  0.97465815  0.43970886    -0.77100
C449        C  0.14498500  0.95613916  0.46213967     1.03500
O450        O  0.14644616  0.03222372  0.47510936    -0.84400
O451        O  0.19912418  0.03907354  0.50836469    -0.81500
C452        C  0.22656279  0.03432835  0.51549853     0.99100
O453        O  0.24017650  0.01040739  0.50730173    -0.81500
O454        O  0.24944108  0.02070667  0.44714411    -0.84100
C455        C  0.24412199  0.02374743  0.41903478     1.03500
O456        O  0.21980806  0.01372569  0.40725025    -0.76900
O457        O  0.16943532  0.03863036  0.43186909    -0.77100
C458        C  0.15513246  0.04963455  0.45393225     1.03500
Cr459      Cr  0.17438007  0.00307438  0.49675857     1.93700
Cr460      Cr  0.23525717  0.98543730  0.47011553     1.93200
Cr461      Cr  0.18243876  0.99582913  0.42627333     1.39100
O462        O  0.19746386  0.99534025  0.46401715    -1.22200
O463        O  0.91260831  0.14768471  0.49159006    -0.84400
O464        O  0.86720129  0.17858254  0.52327423    -0.81500
C465        C  0.86368453  0.20541123  0.51303538     0.99000
O466        O  0.85723173  0.20945607  0.48528796    -0.81500
O467        O  0.83872853  0.19822734  0.42646141    -0.84100
C468        C  0.86358533  0.19989307  0.41328072     1.03600
O469        O  0.88287166  0.17852559  0.41591854    -0.76900
O470        O  0.91345298  0.12988196  0.44467744    -0.77100
C471        C  0.92714773  0.13909767  0.46830722     1.03500
O472        O  0.87624802  0.09488459  0.48885781    -0.84400
O473        O  0.82819948  0.12693506  0.51651440    -0.81500
C474        C  0.80807904  0.14751704  0.51938636     0.99100
O475        O  0.81072570  0.17210321  0.50539195    -0.81500
O476        O  0.79892345  0.15452890  0.44631231    -0.84100
C477        C  0.80273583  0.14824540  0.41856050     1.03500
O478        O  0.82931044  0.14172002  0.40901072    -0.76900
O479        O  0.86016479  0.09364654  0.44124273    -0.77100
C480        C  0.86818056  0.08006019  0.46560698     1.03500
Cr481      Cr  0.87013923  0.13795533  0.50199168     1.93700
Cr482      Cr  0.82894130  0.18088475  0.46590521     1.93200
Cr483      Cr  0.87024995  0.13686963  0.43065198     1.39100
O484        O  0.85656425  0.15141931  0.46612809    -1.22200
O485        O  0.14116113  0.09540168  0.47961758    -0.84400
O486        O  0.18548311  0.13091066  0.50937529    -0.81500
C487        C  0.20395754  0.15259172  0.51292584     0.99000
O488        O  0.19862014  0.17770616  0.50071905    -0.81500
O489        O  0.21332013  0.16331621  0.44132876    -0.84100
C490        C  0.20991630  0.15561190  0.41382509     1.03600
O491        O  0.18375767  0.14911934  0.40361558    -0.76900
O492        O  0.15797452  0.09912450  0.43253604    -0.77100
C493        C  0.15060549  0.08310035  0.45529672     1.03500
O494        O  0.09833056  0.14361754  0.48394705    -0.84400
O495        O  0.14149149  0.17963151  0.51790927    -0.81500
C496        C  0.14378725  0.20692445  0.50812170     0.99100
O497        O  0.14874786  0.21131598  0.48024387    -0.81500
O498        O  0.16967217  0.20413282  0.42206051    -0.84100
C499        C  0.14508490  0.20440256  0.40807531     1.03500
O500        O  0.12733820  0.18208031  0.41037012    -0.76900
O501        O  0.10152658  0.13006055  0.43573221    -0.77100
C502        C  0.08588395  0.13502151  0.45923865     1.03500
Cr503      Cr  0.14244922  0.13875073  0.49489345     1.93700
Cr504      Cr  0.18025123  0.18624963  0.46111655     1.93200
Cr505      Cr  0.14357850  0.14113973  0.42364353     1.39100
O506        O  0.15524296  0.15489814  0.45987950    -1.22200
O507        O  0.97706054  0.13470478  0.44656274    -0.84400
O508        O  0.96846341  0.19340643  0.42120883    -0.81500
C509        C  0.97382279  0.22188702  0.41941407     0.99000
O510        O  0.99910472  0.23355839  0.42719545    -0.81500
O511        O  0.01312458  0.24115714  0.48643329    -0.84100
C512        C  0.99808044  0.23201035  0.50909018     1.03600
O513        O  0.99518111  0.20408706  0.51488743    -0.76900
O514        O  0.97213398  0.15657923  0.48996663    -0.77100
C515        C  0.96046607  0.14262643  0.46836465     1.03500
O516        O  0.04087055  0.13942788  0.42972978    -0.84400
O517        O  0.02177066  0.18962541  0.39144061    -0.81500
C518        C  0.04490408  0.20546341  0.39417658     0.99100
O519        O  0.05818387  0.20337206  0.41904246    -0.81500
O520        O  0.06991951  0.20864628  0.47634232    -0.84100
C521        C  0.06693898  0.20502851  0.50426429     1.03500
O522        O  0.05434948  0.18114099  0.51284809    -0.76900
O523        O  0.03510431  0.13184773  0.47907364    -0.77100
C524        C  0.05234322  0.13378616  0.45589548     1.03500
Cr525      Cr  0.00338978  0.16485159  0.42538719     1.93700
Cr526      Cr  0.03416061  0.21997910  0.45254058     1.93200
Cr527      Cr  0.01446651  0.16856439  0.49594584     1.39100
O528        O  0.01605059  0.18538913  0.45869376    -1.22200
O529        O  0.86472926  0.30651856  0.62286114    -0.84400
O530        O  0.92195966  0.30863683  0.60354361    -0.81500
C531        C  0.94565351  0.31811576  0.59140761     0.99000
O532        O  0.95295776  0.34567618  0.59409285    -0.81500
O533        O  0.91185008  0.36513642  0.55096680    -0.84100
C534        C  0.88715536  0.37310806  0.53855475     1.03600
O535        O  0.86463281  0.38155807  0.55471409    -0.76900
O536        O  0.84599556  0.33200371  0.58455277    -0.77100
C537        C  0.85339771  0.30695959  0.59641379     1.03500
O538        O  0.87968232  0.35148188  0.66759131    -0.84400
O539        O  0.93720646  0.35193658  0.65108140    -0.81500
C540        C  0.93750470  0.38059578  0.65409567     0.99100
O541        O  0.93495934  0.39718261  0.63076888    -0.81500
O542        O  0.90183723  0.42002203  0.58290837    -0.84100
C543        C  0.88021750  0.43228050  0.59722734     1.03500
O544        O  0.86195946  0.41594759  0.61177682    -0.76900
O545        O  0.83937918  0.36714982  0.64235066    -0.77100
C546        C  0.85451017  0.36470171  0.66705266     1.03500
Cr547      Cr  0.90037115  0.33147429  0.63455337     1.93700
Cr548      Cr  0.92355082  0.38058842  0.59106464     1.93200
Cr549      Cr  0.85521463  0.37310604  0.59933727     1.39100
O550        O  0.89272988  0.36176352  0.60845763    -1.22200
O551        O  0.69702861  0.87324143  0.60637664    -0.84400
O552        O  0.68040666  0.93036064  0.61342862    -0.81500
C553        C  0.68382271  0.93370070  0.58506504     0.99000
O554        O  0.66092061  0.93242656  0.56799519    -0.81500
O555        O  0.61402279  0.90278085  0.54161209    -0.84100
C556        C  0.62763066  0.88156174  0.52775177     1.03600
O557        O  0.63946455  0.85994649  0.54258313    -0.76900
O558        O  0.67201878  0.83414580  0.58838993    -0.77100
C559        C  0.69634348  0.84949968  0.59103389     1.03500
O560        O  0.65553681  0.85229966  0.65094689    -0.84400
O561        O  0.63507907  0.90924103  0.65489740    -0.81500
C562        C  0.62251612  0.93395571  0.64856145     0.99100
O563        O  0.62320482  0.94485531  0.62183437    -0.81500
O564        O  0.58066990  0.90755786  0.59655286    -0.84100
C565        C  0.56790321  0.88333095  0.58829376     1.03500
O566        O  0.58370791  0.86077311  0.57887500    -0.76900
O567        O  0.61543960  0.83794180  0.62646056    -0.77100
C568        C  0.62901062  0.84198147  0.65136183     1.03500
Cr569      Cr  0.66513405  0.89094351  0.62946725     1.93700
Cr570      Cr  0.62111130  0.91986880  0.58325283     1.93200
Cr571      Cr  0.62857775  0.85030384  0.58533248     1.39100
O572        O  0.63821090  0.88676276  0.59919652    -1.22200
O573        O  0.34773608  0.85426582  0.64915544    -0.84400
O574        O  0.36749968  0.91027788  0.65855023    -0.81500
C575        C  0.38250601  0.93371595  0.65397695     0.99000
O576        O  0.38332546  0.94627212  0.62786041    -0.81500
O577        O  0.42335815  0.90968866  0.59832635    -0.84100
C578        C  0.43538743  0.88563292  0.58841088     1.03600
O579        O  0.41887923  0.86431131  0.57807968    -0.76900
O580        O  0.38838577  0.84067315  0.62553402    -0.77100
C581        C  0.37506259  0.84561209  0.65025486     1.03500
O582        O  0.30585744  0.87932774  0.60547234    -0.84400
O583        O  0.32381435  0.93587659  0.61847643    -0.81500
C584        C  0.32064741  0.94163841  0.59054335     0.99100
O585        O  0.34355702  0.94123579  0.57366560    -0.81500
O586        O  0.38754567  0.90996335  0.54349953    -0.84100
C587        C  0.37426722  0.88883604  0.52909099     1.03500
O588        O  0.36235946  0.86727376  0.54357009    -0.76900
O589        O  0.33068178  0.83946516  0.58853278    -0.77100
C590        C  0.30624180  0.85515273  0.59059996     1.03500
Cr591      Cr  0.33788419  0.89462902  0.63096779     1.93700
Cr592      Cr  0.38297921  0.92474248  0.58696621     1.93200
Cr593      Cr  0.37412631  0.85516872  0.58530807     1.39100
O594        O  0.36509108  0.89144428  0.60090122    -1.22200
O595        O  0.88047852  0.64286687  0.66497243    -0.84400
O596        O  0.93693393  0.64264810  0.64522846    -0.81500
C597        C  0.93808577  0.61398173  0.64821029     0.99000
O598        O  0.93400803  0.59751434  0.62512255    -0.81500
O599        O  0.89879644  0.57576073  0.57850681    -0.84100
C600        C  0.87818512  0.56360744  0.59414838     1.03600
O601        O  0.86011644  0.58009949  0.60898985    -0.76900
O602        O  0.83924880  0.62808840  0.64142475    -0.77100
C603        C  0.85591337  0.62897294  0.66527222     1.03500
O604        O  0.86268912  0.68947075  0.62120955    -0.84400
O605        O  0.91831647  0.68610682  0.59894371    -0.81500
C606        C  0.94253993  0.67734654  0.58719840     0.99100
O607        O  0.95003418  0.64955169  0.58814251    -0.81500
O608        O  0.90723581  0.63129912  0.54654245    -0.84100
C609        C  0.88150171  0.62553592  0.53534149     1.03500
O610        O  0.86016917  0.61571049  0.55218333    -0.76900
O611        O  0.84273224  0.66508219  0.58330442    -0.77100
C612        C  0.85032269  0.68992165  0.59518244     1.03500
Cr613      Cr  0.89894281  0.66346434  0.63090345     1.93700
Cr614      Cr  0.92069302  0.61485813  0.58599291     1.93200
Cr615      Cr  0.85271809  0.62322324  0.59733751     1.39100
O616        O  0.89048787  0.63371761  0.60492189    -1.22200
O617        O  0.85325650  0.69033462  0.31306404    -0.84400
O618        O  0.90976993  0.69597544  0.33435452    -0.81500
C619        C  0.93285242  0.68904898  0.34940988     0.99000
O620        O  0.94312296  0.66207662  0.34932085    -0.81500
O621        O  0.90356712  0.64025573  0.39197710    -0.84100
C622        C  0.87898411  0.63169449  0.40374327     1.03600
O623        O  0.85780496  0.62122096  0.38705481    -0.76900
O624        O  0.83735731  0.66984000  0.35465059    -0.77100
C625        C  0.84507886  0.69333093  0.34034189     1.03500
O626        O  0.87516100  0.64407060  0.27373074    -0.84400
O627        O  0.93179798  0.65176581  0.29170957    -0.81500
C628        C  0.93548920  0.62326241  0.29000045     0.99100
O629        O  0.93188535  0.60736174  0.31359006    -0.81500
O630        O  0.89895497  0.58424622  0.36030679    -0.84100
C631        C  0.87896829  0.57043565  0.34513013     1.03500
O632        O  0.85833943  0.58521168  0.33159750    -0.76900
O633        O  0.83386148  0.63164464  0.29838376    -0.77100
C634        C  0.85022317  0.63097589  0.27452837     1.03500
Cr635      Cr  0.89206933  0.66904841  0.30491759     1.93700
Cr636      Cr  0.91761135  0.62464217  0.35239826     1.93200
Cr637      Cr  0.84888783  0.62808029  0.34204434     1.39100
O638        O  0.88601777  0.64050588  0.33318034    -1.22200
O639        O  0.31183786  0.64770510  0.79916518    -0.84400
O640        O  0.30756833  0.62412372  0.85559909    -0.81500
C641        C  0.31514463  0.60930776  0.87881964     0.99000
O642        O  0.34213040  0.61029018  0.88854872    -0.81500
O643        O  0.36435334  0.56938749  0.84826373    -0.84100
C644        C  0.37147166  0.55754357  0.82321322     1.03600
O645        O  0.38132086  0.57390997  0.80145224    -0.76900
O646        O  0.33274309  0.60672969  0.78228177    -0.77100
C647        C  0.30909322  0.62076560  0.79004369     1.03500
O648        O  0.35785442  0.68729406  0.82125201    -0.84400
O649        O  0.34982936  0.66862925  0.87845678    -0.81500
C650        C  0.37763699  0.66893039  0.88563564     0.99100
O651        O  0.39485629  0.64711367  0.87838725    -0.81500
O652        O  0.41959061  0.60165059  0.84334811    -0.84100
C653        C  0.43264746  0.61569095  0.82204228     1.03500
O654        O  0.41725731  0.62904320  0.80178933    -0.76900
O655        O  0.37118619  0.66332333  0.77938966    -0.77100
C656        C  0.37153471  0.68692091  0.79630487     1.03500
Cr657      Cr  0.33348129  0.65510454  0.83808384     1.93700
Cr658      Cr  0.37917385  0.60858376  0.86250722     1.93200
Cr659      Cr  0.37447817  0.61918792  0.79342463     1.39100
O660        O  0.36273770  0.62779137  0.83118539    -1.22200
O661        O  0.65155663  0.67779127  0.79107413    -0.84400
O662        O  0.63170244  0.68929141  0.84757681    -0.81500
C663        C  0.61628816  0.68423395  0.87070772     0.99000
O664        O  0.61581244  0.65808936  0.88295986    -0.81500
O665        O  0.57508299  0.63001782  0.84636811    -0.84100
C666        C  0.56333302  0.61930472  0.82258560     1.03600
O667        O  0.57965679  0.60899772  0.80116909    -0.76900
O668        O  0.60994731  0.65679173  0.77762368    -0.77100
C669        C  0.62398078  0.68074948  0.78410916     1.03500
O670        O  0.69207104  0.63396224  0.81670666    -0.84400
O671        O  0.67464842  0.64824564  0.87300581    -0.81500
C672        C  0.67703060  0.62043209  0.87963355     0.99100
O673        O  0.65428108  0.60358535  0.87731002    -0.81500
O674        O  0.60912575  0.57510649  0.84694194    -0.84100
C675        C  0.62240999  0.55971257  0.82661646     1.03500
O676        O  0.63458859  0.57310164  0.80434035    -0.76900
O677        O  0.66730414  0.61763278  0.77647142    -0.77100
C678        C  0.69122887  0.61848486  0.79288005     1.03500
Cr679      Cr  0.66080102  0.66063270  0.83168729     1.93700
Cr680      Cr  0.61504552  0.61778634  0.86138952     1.93200
Cr681      Cr  0.62389610  0.61561059  0.79192546     1.39100
O682        O  0.63312983  0.63116032  0.82825573    -1.22200
O683        O  0.64348178  0.87881171  0.26552989    -0.84400
O684        O  0.64446563  0.93668115  0.28206210    -0.81500
C685        C  0.61592689  0.93800468  0.27929257     0.99000
O686        O  0.59965710  0.93530943  0.30264937    -0.81500
O687        O  0.57817758  0.90332649  0.35145137    -0.84100
C688        C  0.56521282  0.88221833  0.33719257     1.03600
O689        O  0.58100661  0.86209674  0.32413604    -0.76900
O690        O  0.62845197  0.83899136  0.29155708    -0.77100
C691        C  0.62984067  0.85409936  0.26670460     1.03500
O692        O  0.69035341  0.86274988  0.30897178    -0.84400
O693        O  0.68807514  0.91979597  0.32815479    -0.81500
C694        C  0.67942181  0.94403138  0.34012336     0.99100
O695        O  0.65207591  0.95242897  0.33826885    -0.81500
O696        O  0.63338943  0.91249141  0.38269813    -0.84100
C697        C  0.62702787  0.88752497  0.39543084     1.03500
O698        O  0.61804988  0.86497676  0.37962980    -0.76900
O699        O  0.66667552  0.84524429  0.34853745    -0.77100
C700        C  0.69125204  0.85114252  0.33533120     1.03500
Cr701      Cr  0.66469427  0.89896681  0.29797774     1.93700
Cr702      Cr  0.61718201  0.92394172  0.34238666     1.93200
Cr703      Cr  0.62457797  0.85499427  0.33494381     1.39100
O704        O  0.63535391  0.89230983  0.32499679    -1.22200
O705        O  0.68994174  0.33881425  0.82661113    -0.84400
O706        O  0.68551910  0.36036711  0.88302922    -0.81500
C707        C  0.67528044  0.37484053  0.90520128     0.99000
O708        O  0.64724795  0.37491810  0.91098719    -0.81500
O709        O  0.63024155  0.41668108  0.86663814    -0.84100
C710        C  0.62443972  0.42763359  0.84053661     1.03600
O711        O  0.61769737  0.41015336  0.81844767    -0.76900
O712        O  0.66877064  0.37864507  0.80607423    -0.77100
C713        C  0.69222650  0.36557695  0.81636159     1.03500
O714        O  0.64177527  0.29727828  0.84133140    -0.84400
O715        O  0.63997793  0.31676959  0.89846329    -0.81500
C716        C  0.61141927  0.31468820  0.89761371     0.99100
O717        O  0.59579254  0.33826223  0.89241730    -0.81500
O718        O  0.57670041  0.38408684  0.85500053    -0.84100
C719        C  0.56561437  0.36752468  0.83443533     1.03500
O720        O  0.58287743  0.35400520  0.81602173    -0.76900
O721        O  0.63205925  0.32115975  0.79839511    -0.77100
C722        C  0.63091641  0.29733927  0.81500942     1.03500
Cr723      Cr  0.66260486  0.33001955  0.86156100     1.93700
Cr724      Cr  0.61404530  0.37699592  0.87963139     1.93200
Cr725      Cr  0.62629159  0.36514439  0.81198096     1.39100
O726        O  0.63429992  0.35738869  0.85085476    -1.22200
O727        O  0.70130387  0.13242007  0.32150677    -0.84400
O728        O  0.68325197  0.07517842  0.31861739    -0.81500
C729        C  0.68425182  0.07333401  0.34739929     0.99000
O730        O  0.66014401  0.07644979  0.36251396    -0.81500
O731        O  0.61237369  0.11040917  0.38324839    -0.84100
C732        C  0.62838392  0.12930826  0.39754596     1.03600
O733        O  0.64301902  0.14896690  0.38278130    -0.76900
O734        O  0.67670568  0.17301469  0.33704802    -0.77100
C735        C  0.70067988  0.15673013  0.33628294     1.03500
O736        O  0.65906208  0.15030459  0.27366870    -0.84400
O737        O  0.63924193  0.09314112  0.27232131    -0.81500
C738        C  0.62669064  0.06904654  0.28036528     0.99100
O739        O  0.62615935  0.06177951  0.30820095    -0.81500
O740        O  0.58298047  0.10499555  0.32561456    -0.84100
C741        C  0.57209904  0.13081141  0.33273385     1.03500
O742        O  0.58871599  0.15085227  0.34501783    -0.76900
O743        O  0.62045809  0.16988781  0.29708117    -0.77100
C744        C  0.63242694  0.16102103  0.27257441     1.03500
Cr745      Cr  0.66891669  0.11343861  0.29827072     1.93700
Cr746      Cr  0.62178052  0.09021890  0.34359044     1.93200
Cr747      Cr  0.63322966  0.15852645  0.33930838     1.39100
O748        O  0.64144970  0.12097932  0.32707087    -1.22200
O749        O  0.30420807  0.87610536  0.31886978    -0.84400
O750        O  0.32018804  0.93361317  0.30959927    -0.81500
C751        C  0.31785659  0.93740804  0.33795518     0.99000
O752        O  0.34151966  0.93793929  0.35401207    -0.81500
O753        O  0.38785639  0.90697939  0.38129150    -0.84100
C754        C  0.37441814  0.88620182  0.39583459     1.03600
O755        O  0.36212472  0.86467472  0.38145692    -0.76900
O756        O  0.33034009  0.83678732  0.33568920    -0.77100
C757        C  0.30547965  0.85162419  0.33331172     1.03500
O758        O  0.34618657  0.85475768  0.27454619    -0.84400
O759        O  0.36437733  0.91205068  0.26738775    -0.81500
C760        C  0.37782082  0.93624677  0.27302875     0.99100
O761        O  0.37858608  0.94713085  0.29969337    -0.81500
O762        O  0.42109290  0.90923206  0.32586755    -0.84100
C763        C  0.43345529  0.88513993  0.33576694     1.03500
O764        O  0.41743572  0.86355286  0.34613850    -0.76900
O765        O  0.38686800  0.84041755  0.29836444    -0.77100
C766        C  0.37352072  0.84628454  0.27364683     1.03500
Cr767      Cr  0.33550462  0.89382870  0.29445169     1.93700
Cr768      Cr  0.38083296  0.92322656  0.33894499     1.93200
Cr769      Cr  0.37312550  0.85358710  0.33909405     1.39100
O770        O  0.36316558  0.89007289  0.32430063    -1.22200
O771        O  0.11703364  0.69643492  0.60334309    -0.84400
O772        O  0.05897493  0.68380376  0.61184045    -0.81500
C773        C  0.05546744  0.68666783  0.58336787     0.99000
O774        O  0.05457048  0.66302784  0.56732978    -0.81500
O775        O  0.08295127  0.61476302  0.54144560    -0.84100
C776        C  0.10488943  0.62678766  0.52755067     1.03600
O777        O  0.12686468  0.63775457  0.54220116    -0.76900
O778        O  0.15507859  0.66793872  0.58808887    -0.77100
C779        C  0.14112176  0.69345191  0.58872685     1.03500
O780        O  0.13571684  0.65335703  0.64919560    -0.84400
O781        O  0.07818929  0.63720592  0.65472669    -0.81500
C782        C  0.05432340  0.62355282  0.64829366     0.99100
O783        O  0.04273271  0.62627057  0.62195268    -0.81500
O784        O  0.07746120  0.58130541  0.59681072    -0.84100
C785        C  0.10102185  0.56771319  0.58772973     1.03500
O786        O  0.12339404  0.58266794  0.57765034    -0.76900
O787        O  0.14697445  0.61127702  0.62637610    -0.77100
C788        C  0.14291300  0.62555485  0.65086236     1.03500
Cr789      Cr  0.09761899  0.66603504  0.62801075     1.93700
Cr790      Cr  0.06643381  0.62261975  0.58311519     1.93200
Cr791      Cr  0.13605554  0.62605182  0.58487827     1.39100
O792        O  0.10019561  0.63828961  0.59838703    -1.22200
O793        O  0.31386522  0.12444373  0.60091952    -0.84400
O794        O  0.33514604  0.06867402  0.60453176    -0.81500
C795        C  0.33155151  0.06664184  0.57596889     0.99000
O796        O  0.35392653  0.07100277  0.55882034    -0.81500
O797        O  0.39876569  0.10625103  0.53495244    -0.84100
C798        C  0.38288364  0.12645717  0.52183918     1.03600
O799        O  0.36759417  0.14490694  0.53751350    -0.76900
O800        O  0.33476099  0.16662978  0.58494968    -0.77100
C801        C  0.31188484  0.14911695  0.58700664     1.03500
O802        O  0.35524843  0.14654508  0.64498345    -0.84400
O803        O  0.38048039  0.09066501  0.64698519    -0.81500
C804        C  0.39262352  0.06616881  0.63915198     0.99100
O805        O  0.39192780  0.05799897  0.61154273    -0.81500
O806        O  0.43144831  0.10090330  0.59024813    -0.84100
C807        C  0.44159115  0.12671273  0.58300722     1.03500
O808        O  0.42412875  0.14739280  0.57220871    -0.76900
O809        O  0.39335474  0.16575279  0.62131173    -0.77100
C810        C  0.38141775  0.15765549  0.64592465     1.03500
Cr811      Cr  0.34788506  0.10816460  0.62274195     1.93700
Cr812      Cr  0.39264742  0.08576927  0.57507223     1.93200
Cr813      Cr  0.37916023  0.15408345  0.58008818     1.39100
O814        O  0.37312808  0.11628899  0.59246519    -1.22200
O815        O  0.87388579  0.34759799  0.28293368    -0.84400
O816        O  0.92812029  0.37425686  0.28456202    -0.81500
C817        C  0.95022063  0.38959728  0.29323720     0.99000
O818        O  0.95829564  0.38917748  0.32090391    -0.81500
O819        O  0.91378140  0.42826994  0.33795187    -0.84100
C820        C  0.88814573  0.43907260  0.34450918     1.03600
O821        O  0.86676127  0.42161602  0.35292273    -0.76900
O822        O  0.85257056  0.38711840  0.30387370    -0.77100
C823        C  0.85978758  0.37251064  0.28032392     1.03500
O824        O  0.89367176  0.30918654  0.33104265    -0.84400
O825        O  0.94900894  0.33177535  0.33064963    -0.81500
C826        C  0.94913585  0.32954186  0.35939226     0.99100
O827        O  0.94412361  0.35302643  0.37484789    -0.81500
O828        O  0.90616288  0.39756131  0.39436912    -0.84100
C829        C  0.88643567  0.38097482  0.40671636     1.03500
O830        O  0.86812475  0.36637630  0.39036283    -0.76900
O831        O  0.85026327  0.33130827  0.34254983    -0.77100
C832        C  0.86774101  0.30801211  0.34209809     1.03500
Cr833      Cr  0.91058376  0.34246708  0.30901287     1.93700
Cr834      Cr  0.92891015  0.39044628  0.35570899     1.93200
Cr835      Cr  0.86165475  0.37595006  0.34655043     1.39100
O836        O  0.90005876  0.36943765  0.33728575    -1.22200
O837        O  0.11331825  0.64337109  0.26639046    -0.84400
O838        O  0.05591113  0.65833814  0.28142566    -0.81500
C839        C  0.04945995  0.63075507  0.27792347     0.99000
O840        O  0.05042271  0.61313916  0.30057156    -0.81500
O841        O  0.07915545  0.58311370  0.34717103    -0.84100
C842        C  0.10107796  0.56841306  0.33552479     1.03600
O843        O  0.12316011  0.58246906  0.32421586    -0.76900
O844        O  0.15208049  0.62752338  0.29375520    -0.77100
C845        C  0.13728222  0.62803187  0.26872859     1.03500
O846        O  0.13625658  0.68761456  0.30889861    -0.84400
O847        O  0.07920867  0.69765882  0.32610843    -0.81500
C848        C  0.05477378  0.69310851  0.33952410     0.99100
O849        O  0.04256423  0.66704332  0.33991952    -0.81500
O850        O  0.07703823  0.63750743  0.38259856    -0.84100
C851        C  0.10063953  0.62740707  0.39554577     1.03500
O852        O  0.12240897  0.61675175  0.37993566    -0.76900
O853        O  0.14664969  0.66501840  0.35133603    -0.77100
C854        C  0.14298129  0.68949040  0.33681071     1.03500
Cr855      Cr  0.09649580  0.66983311  0.29733930     1.93700
Cr856      Cr  0.06434373  0.62625376  0.34121743     1.93200
Cr857      Cr  0.13399921  0.62438390  0.33620650     1.39100
O858        O  0.09830550  0.63994562  0.32504293    -1.22200
O859        O  0.11664731  0.36338286  0.65233079    -0.84400
O860        O  0.05993030  0.34804672  0.63820548    -0.81500
C861        C  0.04877415  0.37456596  0.63718689     0.99000
O862        O  0.05228955  0.39099960  0.61420215    -0.81500
O863        O  0.08249175  0.42173035  0.57137131    -0.84100
C864        C  0.10416902  0.43595383  0.58381986     1.03600
O865        O  0.12682686  0.42184179  0.59443146    -0.76900
O866        O  0.15606327  0.37714548  0.62559970    -0.77100
C867        C  0.14114774  0.37729364  0.65039861     1.03500
O868        O  0.14079479  0.31720744  0.61155107    -0.84400
O869        O  0.08464239  0.30718934  0.59400532    -0.81500
C870        C  0.06257808  0.31134094  0.57666982     0.99100
O871        O  0.04905790  0.33693105  0.57486891    -0.81500
O872        O  0.08246289  0.36779631  0.53508004    -0.84100
C873        C  0.10545545  0.37833347  0.52249363     1.03500
O874        O  0.12753330  0.38797206  0.53831249    -0.76900
O875        O  0.15142669  0.33955619  0.56894188    -0.77100
C876        C  0.14935554  0.31537272  0.58413516     1.03500
Cr877      Cr  0.10069079  0.33609839  0.62205594     1.93700
Cr878      Cr  0.06886905  0.37827678  0.57546885     1.93200
Cr879      Cr  0.13825426  0.38019731  0.58279435     1.39100
O880        O  0.10252421  0.36507169  0.59336492    -1.22200
O881        O  0.66074326  0.14078329  0.65241598    -0.84400
O882        O  0.63395368  0.08702443  0.65644890    -0.81500
C883        C  0.61706964  0.06557661  0.64939719     0.99000
O884        O  0.61630735  0.05554173  0.62232498    -0.81500
O885        O  0.58029524  0.09925958  0.59748413    -0.84100
C886        C  0.57121965  0.12528919  0.58934040     1.03600
O887        O  0.58979883  0.14508344  0.57985769    -0.76900
O888        O  0.62118904  0.16018467  0.63080076    -0.77100
C889        C  0.63418876  0.15127630  0.65484497     1.03500
O890        O  0.69997468  0.11537095  0.60735084    -0.84400
O891        O  0.67519810  0.06025096  0.61480449    -0.81500
C892        C  0.67850470  0.05709834  0.58651016     0.99100
O893        O  0.65617174  0.06191416  0.56919548    -0.81500
O894        O  0.61529635  0.10070682  0.54274571    -0.84100
C895        C  0.63088855  0.12125837  0.53008282     1.03500
O896        O  0.64552322  0.13993152  0.54613501    -0.76900
O897        O  0.67939410  0.15931727  0.59469782    -0.77100
C898        C  0.70199093  0.14091795  0.59497209     1.03500
Cr899      Cr  0.66601792  0.10144873  0.63099393     1.93700
Cr900      Cr  0.61858768  0.08102826  0.58412122     1.93200
Cr901      Cr  0.63473594  0.14888603  0.58904257     1.39100
O902        O  0.63988980  0.11055091  0.60101477    -1.22200
O903        O  0.35636173  0.29826027  0.84188874    -0.84400
O904        O  0.35880641  0.32167225  0.89762952    -0.81500
C905        C  0.38724555  0.31785146  0.89733909     0.99000
O906        O  0.40394353  0.34007696  0.89081094    -0.81500
O907        O  0.42353639  0.38437899  0.85172347    -0.84100
C908        C  0.43501864  0.36627753  0.83273087     1.03600
O909        O  0.41805730  0.35150129  0.81509071    -0.76900
O910        O  0.36837127  0.31923454  0.79827526    -0.77100
C911        C  0.36854790  0.29640105  0.81627760     1.03500
O912        O  0.30932340  0.34165467  0.82411227    -0.84400
O913        O  0.31494699  0.36688361  0.87893336    -0.81500
C914        C  0.32534689  0.37980055  0.90200439     0.99100
O915        O  0.35343206  0.37919600  0.90757085    -0.81500
O916        O  0.36961803  0.41783345  0.86080053    -0.84100
C917        C  0.37472507  0.42707865  0.83397534     1.03500
O918        O  0.38354085  0.40864307  0.81343033    -0.76900
O919        O  0.33271202  0.37810792  0.80084005    -0.77100
C920        C  0.30837175  0.36719935  0.81085806     1.03500
Cr921      Cr  0.33660818  0.33365959  0.85970657     1.93700
Cr922      Cr  0.38622774  0.37891699  0.87613915     1.93200
Cr923      Cr  0.37476874  0.36365285  0.80914602     1.39100
O924        O  0.36590741  0.35860942  0.84805101    -1.22200
O925        O  0.68438655  0.63761347  0.12672800    -0.84400
O926        O  0.67464501  0.65562286  0.06975343    -0.81500
C927        C  0.67730580  0.62860990  0.06035241     0.99000
O928        O  0.65464981  0.61138143  0.05967868    -0.81500
O929        O  0.60444038  0.58186233  0.08029629    -0.84100
C930        C  0.61551445  0.56480966  0.10075059     1.03600
O931        O  0.62535068  0.57614024  0.12505393    -0.76900
O932        O  0.65525412  0.61521107  0.16030505    -0.77100
C933        C  0.68098523  0.61825177  0.14733367     1.03500
O934        O  0.63989197  0.67999371  0.14941190    -0.84400
O935        O  0.62710231  0.69447005  0.09169776    -0.81500
C936        C  0.61730334  0.69142936  0.06526568     0.99100
O937        O  0.61932874  0.66636463  0.05141019    -0.81500
O938        O  0.57205188  0.63775767  0.07985175    -0.84100
C939        C  0.55682664  0.62625160  0.10120126     1.03500
O940        O  0.57012443  0.61334858  0.12374360    -0.76900
O941        O  0.59826099  0.65611832  0.15661149    -0.77100
C942        C  0.61175624  0.68105793  0.15424964     1.03500
Cr943      Cr  0.65463399  0.66516033  0.10947246     1.93700
Cr944      Cr  0.61371992  0.62517178  0.07021095     1.93200
Cr945      Cr  0.61347209  0.61685838  0.13971464     1.39100
O946        O  0.62714959  0.63559697  0.10663155    -1.22200
O947        O  0.33448720  0.68741237  0.11217349    -0.84400
O948        O  0.35550335  0.69449179  0.05722544    -0.81500
C949        C  0.37255055  0.68942113  0.03546641     0.99000
O950        O  0.37456193  0.66332954  0.02322463    -0.81500
O951        O  0.41439976  0.63546601  0.06191009    -0.84100
C952        C  0.42531973  0.62664971  0.08704762     1.03600
O953        O  0.40798896  0.61672799  0.10782332    -0.76900
O954        O  0.37557325  0.66509409  0.12763283    -0.77100
C955        C  0.36139557  0.68948778  0.12194956     1.03500
O956        O  0.29529137  0.64126306  0.08737084    -0.84400
O957        O  0.31465849  0.65237269  0.03131787    -0.81500
C958        C  0.31291230  0.62420909  0.02641385     0.99100
O959        O  0.33647875  0.60811884  0.02858813    -0.81500
O960        O  0.38029433  0.58060429  0.06223485    -0.84100
C961        C  0.36655492  0.56633412  0.08309066     1.03500
O962        O  0.35335704  0.58087416  0.10404387    -0.76900
O963        O  0.31907266  0.62632478  0.12882355    -0.77100
C964        C  0.29549467  0.62693483  0.11186803     1.03500
Cr965      Cr  0.32670234  0.66686933  0.07246262     1.93700
Cr966      Cr  0.37480927  0.62310455  0.04582488     1.93200
Cr967      Cr  0.36306228  0.62357565  0.11489939     1.39100
O968        O  0.35497150  0.63764673  0.07781090    -1.22200
O969        O  0.65329221  0.31014293  0.08839618    -0.84400
O970        O  0.63062122  0.31601410  0.03253343    -0.81500
C971        C  0.61769923  0.32573566  0.00907464     0.99000
O972        O  0.61638437  0.35395335  0.00358352    -0.81500
O973        O  0.57373916  0.36808740  0.04773980    -0.84100
C974        C  0.56261528  0.37249656  0.07394013     1.03600
O975        O  0.57961805  0.38065993  0.09598588    -0.76900
O976        O  0.61368981  0.33117909  0.10948945    -0.77100
C977        C  0.62814598  0.30770727  0.10167587     1.03500
O978        O  0.69291119  0.35936974  0.07485206    -0.84400
O979        O  0.67288475  0.36290356  0.01786994    -0.81500
C980        C  0.67474092  0.39143339  0.02034668     0.99100
O981        O  0.65068939  0.40668042  0.02365484    -0.81500
O982        O  0.60386306  0.42372791  0.06013752    -0.84100
C983        C  0.61910031  0.43471213  0.08183131     1.03500
O984        O  0.63416042  0.41743071  0.09918502    -0.76900
O985        O  0.66861117  0.36903091  0.11729258    -0.77100
C986        C  0.69275220  0.36920300  0.10145775     1.03500
Cr987      Cr  0.66063625  0.33887613  0.05409275     1.93700
Cr988      Cr  0.61265248  0.38658241  0.03544036     1.93200
Cr989      Cr  0.62481094  0.37382488  0.10310308     1.39100
O990        O  0.63276203  0.36644868  0.06450795    -1.22200
O991        O  0.10708836  0.30660342  0.31570426    -0.84400
O992        O  0.05064639  0.32355269  0.30222222    -0.81500
C993        C  0.04497745  0.32049348  0.33019785     0.99000
O994        O  0.04553883  0.34365768  0.34686537    -0.81500
O995        O  0.07681062  0.38745745  0.37699291    -0.84100
C996        C  0.09898789  0.37503013  0.39092288     1.03600
O997        O  0.12000264  0.36239930  0.37627124    -0.76900
O998        O  0.14733973  0.33166435  0.33028613    -0.77100
C999        C  0.13180046  0.30735652  0.32950842     1.03500
O1000       O  0.13184745  0.34742012  0.27223796    -0.84400
O1001       O  0.07552165  0.36773906  0.26187851    -0.81500
C1002       C  0.05292694  0.38420408  0.26686620     0.99100
O1003       O  0.04009017  0.38445393  0.29279007    -0.81500
O1004       O  0.07526847  0.42424041  0.32379852    -0.84100
C1005       C  0.09910847  0.43597390  0.33401589     1.03500
O1006       O  0.12100133  0.41923405  0.34321431    -0.76900
O1007       O  0.14412339  0.38921257  0.29475605    -0.77100
C1008       C  0.14017488  0.37473693  0.27051800     1.03500
Cr1009     Cr  0.09149188  0.33804642  0.28979834     1.93700
Cr1010     Cr  0.06132931  0.38339855  0.33390564     1.93200
Cr1011     Cr  0.13086145  0.37473070  0.33480324     1.39100
O1012       O  0.09458320  0.36563743  0.31961795    -1.22200
O1013       O  0.34893374  0.15121190  0.27072991    -0.84400
O1014       O  0.37553159  0.09682210  0.26703938    -0.81500
C1015       C  0.39360537  0.07605015  0.27435035     0.99000
O1016       O  0.39594978  0.06761649  0.30174738    -0.81500
O1017       O  0.43329620  0.11383703  0.31729965    -0.84100
C1018       C  0.44289196  0.13956885  0.32491042     1.03600
O1019       O  0.42493817  0.15921458  0.33660843    -0.76900
O1020       O  0.38753970  0.17447189  0.28971385    -0.77100
C1021       C  0.37462175  0.16302413  0.26691032     1.03500
O1022       O  0.31400554  0.12859741  0.32101189    -0.84400
O1023       O  0.33767860  0.07308639  0.31518042    -0.81500
C1024       C  0.34051419  0.06829402  0.34355561     0.99100
O1025       O  0.36362885  0.07752300  0.35754123    -0.81500
O1026       O  0.40632050  0.11777443  0.37612039    -0.84100
C1027       C  0.38834009  0.13509907  0.39031782     1.03500
O1028       O  0.37152574  0.15328056  0.37567813    -0.76900
O1029       O  0.33380871  0.17314572  0.33076924    -0.77100
C1030       C  0.31192434  0.15451519  0.33260010     1.03500
Cr1031     Cr  0.34573743  0.11318914  0.29496249     1.93700
Cr1032     Cr  0.39814660  0.09595303  0.33711655     1.93200
Cr1033     Cr  0.37883269  0.16279558  0.33226871     1.39100
O1034       O  0.37409075  0.12414070  0.32149405    -1.22200
O1035       O  0.30115117  0.35419710  0.08933296    -0.84400
O1036       O  0.31727512  0.35200784  0.03160278    -0.81500
C1037       C  0.31471771  0.38070231  0.02959542     0.99000
O1038       O  0.33818134  0.39675584  0.03120935    -0.81500
O1039       O  0.38623115  0.42003367  0.06243794    -0.84100
C1040       C  0.37150007  0.43350517  0.08308176     1.03600
O1041       O  0.35875287  0.41801063  0.10342616    -0.76900
O1042       O  0.32636883  0.37254593  0.12825240    -0.77100
C1043       C  0.30161176  0.36956093  0.11320566     1.03500
O1044       O  0.34598193  0.30812875  0.10623609    -0.84400
O1045       O  0.36419049  0.30821731  0.04928534    -0.81500
C1046       C  0.37648270  0.31595189  0.02502829     0.99100
O1047       O  0.37432676  0.34316440  0.01581820    -0.81500
O1048       O  0.41804911  0.36380321  0.05516176    -0.84100
C1049       C  0.43077731  0.37084303  0.07997539     1.03500
O1050       O  0.41499815  0.38113180  0.10214226    -0.76900
O1051       O  0.38432296  0.33335165  0.12368923    -0.77100
C1052       C  0.37261180  0.30817659  0.11701382     1.03500
Cr1053     Cr  0.33394364  0.33260372  0.06957528     1.93700
Cr1054     Cr  0.37782152  0.37961645  0.04314904     1.93200
Cr1055     Cr  0.37011504  0.37503566  0.11230950     1.39100
O1056       O  0.36051663  0.36252271  0.07532807    -1.22200
C1057       C  0.51224940  0.34991856  0.05971113     0.24500
C1058       C  0.52917833  0.36955329  0.07833855    -0.23600
C1059       C  0.51355515  0.38724848  0.10008518     0.19400
C1060       C  0.48168316  0.38675165  0.10175830     0.24500
C1061       C  0.46465635  0.36843793  0.08181699    -0.23500
C1062       C  0.48055168  0.34919546  0.06158196     0.19400
F1063       F  0.46540459  0.32959414  0.04330883    -0.13500
F1064       F  0.52638429  0.33130155  0.03950448    -0.15800
F1065       F  0.46751670  0.40536041  0.12190150    -0.15900
F1066       F  0.52897234  0.40631434  0.11871576    -0.13500
C1067       C  0.35850974  0.51547614  0.10911616     0.24500
C1068       C  0.36671842  0.53227901  0.08302559    -0.23600
C1069       C  0.37569490  0.51608223  0.05682813     0.19400
C1070       C  0.37719442  0.48424242  0.05695191     0.24500
C1071       C  0.36955601  0.46745770  0.08319625    -0.23500
C1072       C  0.35979107  0.48353873  0.10915524     0.19400
F1073       F  0.35207438  0.46846659  0.13497326    -0.13500
F1074       F  0.34994250  0.52985373  0.13503577    -0.15800
F1075       F  0.38578143  0.46989416  0.03098696    -0.15900
F1076       F  0.38280927  0.53096424  0.03070893    -0.13500
C1077       C  0.61285491  0.51920345  0.06671463     0.24500
C1078       C  0.61655684  0.53142717  0.09611953    -0.23600
C1079       C  0.62148896  0.51137709  0.12082269     0.19400
C1080       C  0.62291784  0.47995542  0.11615134     0.24500
C1081       C  0.61876271  0.46788247  0.08683915    -0.23500
C1082       C  0.61393658  0.48782392  0.06216012     0.19400
F1083       F  0.61099915  0.47700951  0.03335148    -0.13500
F1084       F  0.60854219  0.53756128  0.04211212    -0.15800
F1085       F  0.62747194  0.46132231  0.14050530    -0.15900
F1086       F  0.62403508  0.52197819  0.14971782    -0.13500
C1087       C  0.47230634  0.62602995  0.12064296     0.24500
C1088       C  0.45889894  0.62707982  0.09141182    -0.23600
C1089       C  0.47807230  0.62836751  0.06584968     0.19400
C1090       C  0.50955247  0.62819105  0.06930629     0.24500
C1091       C  0.52309104  0.62675387  0.09843562    -0.23500
C1092       C  0.50405906  0.62576208  0.12410891     0.19400
F1093       F  0.51610540  0.62516046  0.15260465    -0.13500
F1094       F  0.45473494  0.62584664  0.14594210    -0.15800
F1095       F  0.52679792  0.62847484  0.04375546    -0.15900
F1096       F  0.46648468  0.62902425  0.03712784    -0.13500
C1097       C  0.12897136  0.37134226  0.43986692     0.24500
C1098       C  0.10100788  0.37630960  0.42465340    -0.23600
C1099       C  0.07524368  0.38341771  0.44202672     0.19400
C1100       C  0.07722985  0.38505952  0.47368779     0.24500
C1101       C  0.10502704  0.37972168  0.48887516    -0.23500
C1102       C  0.13093832  0.37319459  0.47168075     0.19400
F1103       F  0.15788687  0.36745617  0.48569141    -0.13500
F1104       F  0.15457032  0.36485496  0.42403376    -0.15800
F1105       F  0.05172694  0.39191842  0.48958729    -0.15900
F1106       F  0.04784722  0.38823996  0.42852654    -0.13500
C1107       C  0.12796457  0.51742904  0.33152525     0.24500
C1108       C  0.10099669  0.53443052  0.33586604    -0.23600
C1109       C  0.07390086  0.51851335  0.34100314     0.19400
C1110       C  0.07358189  0.48668612  0.34076596     0.24500
C1111       C  0.10039343  0.46973782  0.33580933    -0.23500
C1112       C  0.12766225  0.48546854  0.33168878     0.19400
F1113       F  0.15395437  0.46995145  0.32700219    -0.13500
F1114       F  0.15484302  0.53164789  0.32756049    -0.15800
F1115       F  0.04688278  0.47241603  0.34587565    -0.15900
F1116       F  0.04742019  0.53366033  0.34595048    -0.13500
C1117       C  0.39679307  0.10531409  0.47083418     0.24500
C1118       C  0.38353239  0.12882534  0.48814776    -0.23600
C1119       C  0.37185277  0.15466838  0.47289167     0.19400
C1120       C  0.37369750  0.15701844  0.44114419     0.24500
C1121       C  0.38714396  0.13354386  0.42397716    -0.23500
C1122       C  0.39858765  0.10765508  0.43925402     0.19400
F1123       F  0.41102968  0.08403967  0.42364990    -0.13500
F1124       F  0.40783688  0.07963283  0.48430674    -0.15800
F1125       F  0.36275167  0.18254128  0.42733469    -0.15900
F1126       F  0.35907234  0.17798773  0.48862238    -0.13500
C1127       C  0.48948831  0.11785490  0.61145120     0.24500
C1128       C  0.47442627  0.13175183  0.58675176    -0.23600
C1129       C  0.49146608  0.14744450  0.56477728     0.19400
C1130       C  0.52330034  0.14725106  0.56645273     0.24500
C1131       C  0.53826037  0.13141977  0.59014245    -0.23500
C1132       C  0.52096148  0.11777899  0.61316400     0.19400
F1133       F  0.53460903  0.10342795  0.63702453    -0.13500
F1134       F  0.47368470  0.10337961  0.63359477    -0.15800
F1135       F  0.53940794  0.16043280  0.54376035    -0.15900
F1136       F  0.47751730  0.16087101  0.54053604    -0.13500
C1137       C  0.07548575  0.63029416  0.44658287     0.24500
C1138       C  0.10225105  0.62739515  0.42937125    -0.23600
C1139       C  0.13018556  0.62445061  0.44491896     0.19400
C1140       C  0.13124829  0.62469703  0.47686066     0.24500
C1141       C  0.10441578  0.62753950  0.49384904    -0.23500
C1142       C  0.07658573  0.63033697  0.47833900     0.19400
F1143       F  0.05024425  0.63351540  0.49395423    -0.13500
F1144       F  0.04792775  0.63241542  0.43278987    -0.15800
F1145       F  0.15842006  0.62116923  0.49114871    -0.15900
F1146       F  0.15653298  0.62144405  0.42930629    -0.13500
C1147       C  0.12977706  0.51810659  0.58624389     0.24500
C1148       C  0.10194467  0.53395039  0.58766584    -0.23600
C1149       C  0.07486002  0.51713993  0.58826287     0.19400
C1150       C  0.07559680  0.48536305  0.58703405     0.24500
C1151       C  0.10338166  0.46959701  0.58537197    -0.23500
C1152       C  0.13048816  0.48630681  0.58522302     0.19400
F1153       F  0.15778213  0.47193183  0.58326754    -0.13500
F1154       F  0.15643739  0.53331539  0.58600514    -0.15800
F1155       F  0.04903749  0.47001063  0.58792934    -0.15900
F1156       F  0.04745798  0.53138148  0.58928679    -0.13500
C1157       C  0.62289164  0.10017021  0.44646666     0.24500
C1158       C  0.62957281  0.12772042  0.43147138    -0.23600
C1159       C  0.63733144  0.15311828  0.44926052     0.19400
C1160       C  0.63816626  0.15105084  0.48122123     0.24500
C1161       C  0.63118012  0.12353114  0.49615756    -0.23500
C1162       C  0.62363005  0.09813052  0.47826067     0.19400
F1163       F  0.61732475  0.07093986  0.49145785    -0.13500
F1164       F  0.61609709  0.07476687  0.43035598    -0.15800
F1165       F  0.64485618  0.17633180  0.49752153    -0.15900
F1166       F  0.64315676  0.18027848  0.43582953    -0.13500
C1167       C  0.52398509  0.12508372  0.30296849     0.24500
C1168       C  0.53946386  0.13742197  0.32800466    -0.23600
C1169       C  0.52329991  0.15570853  0.34881119     0.19400
C1170       C  0.49176114  0.15905980  0.34626594     0.24500
C1171       C  0.47597511  0.14439619  0.32274409    -0.23500
C1172       C  0.49261825  0.12887890  0.30016629     0.19400
F1173       F  0.47828372  0.11635708  0.27589273    -0.13500
F1174       F  0.53914278  0.10893973  0.28143397    -0.15800
F1175       F  0.47650421  0.17447112  0.36822110    -0.15900
F1176       F  0.53767074  0.16854269  0.37291329    -0.13500
C1177       C  0.51658167  0.35928836  0.80551542     0.24500
C1178       C  0.53229762  0.36446266  0.83300987    -0.23600
C1179       C  0.51573010  0.36763324  0.86012132     0.19400
C1180       C  0.48430506  0.36702641  0.85972185     0.24500
C1181       C  0.46836150  0.36325704  0.83221884    -0.23500
C1182       C  0.48470005  0.35867136  0.80513018     0.19400
F1183       F  0.46989036  0.35523167  0.77820751    -0.13500
F1184       F  0.53190673  0.35636787  0.77893301    -0.15800
F1185       F  0.46939665  0.37031134  0.88654705    -0.15900
F1186       F  0.52996363  0.37131542  0.88736483    -0.13500
C1187       C  0.48377627  0.91010045  0.34056105     0.24500
C1188       C  0.46710767  0.88329984  0.33643034    -0.23600
C1189       C  0.48297956  0.85557776  0.33277412     0.19400
C1190       C  0.51490135  0.85494929  0.33243026     0.24500
C1191       C  0.53146394  0.88194275  0.33642730    -0.23500
C1192       C  0.51536627  0.90945272  0.34059233     0.19400
F1193       F  0.53017642  0.93614328  0.34441743    -0.13500
F1194       F  0.46946712  0.93713426  0.34542872    -0.15800
F1195       F  0.52952069  0.82789553  0.32891420    -0.15900
F1196       F  0.46766571  0.82918366  0.32908294    -0.13500
C1197       C  0.63027105  0.50674322  0.80466745     0.24500
C1198       C  0.62303448  0.52576854  0.82948980    -0.23600
C1199       C  0.61581506  0.51191825  0.85757708     0.19400
C1200       C  0.61644695  0.48028224  0.86093541     0.24500
C1201       C  0.62405465  0.46130064  0.83634114    -0.23500
C1202       C  0.63061179  0.47488281  0.80802750     0.19400
F1203       F  0.63775699  0.45736274  0.78363076    -0.13500
F1204       F  0.63635890  0.51882356  0.77690582    -0.15800
F1205       F  0.60863151  0.46820669  0.88827618    -0.15900
F1206       F  0.60808475  0.52892384  0.88217015    -0.13500
C1207       C  0.34949513  0.47717469  0.84285722     0.24500
C1208       C  0.37131480  0.45994903  0.82714944    -0.23600
C1209       C  0.39054402  0.47478756  0.80639884     0.19400
C1210       C  0.38946668  0.50662288  0.80329158     0.24500
C1211       C  0.36910203  0.52397135  0.82085809    -0.23500
C1212       C  0.34825145  0.50870180  0.83959781     0.19400
F1213       F  0.32699150  0.52443062  0.85554903    -0.13500
F1214       F  0.32956103  0.46351743  0.86189997    -0.15800
F1215       F  0.40962217  0.52049226  0.78468902    -0.15900
F1216       F  0.41170587  0.45876042  0.79064739    -0.13500
C1217       C  0.48205923  0.62271759  0.79417162     0.24500
C1218       C  0.46618028  0.61601234  0.82118520    -0.23600
C1219       C  0.48276407  0.60950916  0.84792105     0.19400
C1220       C  0.51424207  0.61031875  0.84789987     0.24500
C1221       C  0.53007942  0.61742820  0.82117840    -0.23500
C1222       C  0.51383652  0.62315363  0.79414190     0.19400
F1223       F  0.52863251  0.62994970  0.76797259    -0.13500
F1224       F  0.46696638  0.62846916  0.76773246    -0.15800
F1225       F  0.52934323  0.60361704  0.87414931    -0.15900
F1226       F  0.46860131  0.60283068  0.87448456    -0.13500
C1227       C  0.90857396  0.52222257  0.34751601     0.24500
C1228       C  0.88035847  0.53685141  0.34385546    -0.23600
C1229       C  0.85423964  0.51906076  0.33975492     0.19400
C1230       C  0.85637254  0.48713180  0.34006138     0.24500
C1231       C  0.88468797  0.47263846  0.34410253    -0.23500
C1232       C  0.91070898  0.49069600  0.34778795     0.19400
F1233       F  0.93849311  0.47794461  0.35253768    -0.13500
F1234       F  0.93448218  0.53845391  0.35058182    -0.15800
F1235       F  0.83089343  0.47049475  0.33610027    -0.15900
F1236       F  0.82662260  0.53248851  0.33620889    -0.13500
C1237       C  0.89393289  0.65163323  0.48638526     0.24500
C1238       C  0.87726185  0.62936743  0.50198946    -0.23600
C1239       C  0.85851376  0.60983757  0.48510200     0.19400
C1240       C  0.85796125  0.61133474  0.45312140     0.24500
C1241       C  0.87596746  0.63256421  0.43748567    -0.23500
C1242       C  0.89309061  0.65335944  0.45462364     0.19400
F1243       F  0.90923077  0.67544923  0.44065286    -0.13500
F1244       F  0.91141494  0.67169164  0.50190461    -0.15800
F1245       F  0.84114586  0.59085508  0.43748664    -0.15900
F1246       F  0.84216329  0.58805810  0.49937832    -0.13500
C1247       C  0.38373387  0.91376831  0.47789601     0.24500
C1248       C  0.37315557  0.88882423  0.49494617    -0.23600
C1249       C  0.36173708  0.86353389  0.47887622     0.19400
C1250       C  0.36172867  0.86286483  0.44694364     0.24500
C1251       C  0.37330022  0.88734460  0.42991676    -0.23500
C1252       C  0.38376986  0.91306600  0.44592763     0.19400
F1253       F  0.39395821  0.93788265  0.43073981    -0.13500
F1254       F  0.39406751  0.93909193  0.49204611    -0.15800
F1255       F  0.35065434  0.83785455  0.43282417    -0.15900
F1256       F  0.35090643  0.83893573  0.49394423    -0.13500
C1257       C  0.63118435  0.85566743  0.47643402     0.24500
C1258       C  0.62913372  0.88244256  0.49392991    -0.23600
C1259       C  0.62788003  0.91064216  0.47873706     0.19400
C1260       C  0.62757296  0.91213518  0.44697558     0.24500
C1261       C  0.62866369  0.88542722  0.42929129    -0.23500
C1262       C  0.63082176  0.85713731  0.44443226     0.19400
F1263       F  0.63270793  0.83086738  0.42832980    -0.13500
F1264       F  0.63266998  0.82800237  0.49021894    -0.15800
F1265       F  0.62526228  0.93996605  0.43365169    -0.15900
F1266       F  0.62717477  0.93708168  0.49466589    -0.13500
C1267       C  0.51739889  0.85542074  0.58952040     0.24500
C1268       C  0.53396415  0.88273369  0.58842633    -0.23600
C1269       C  0.51763442  0.91045881  0.58750896     0.19400
C1270       C  0.48601914  0.91098077  0.58733117     0.24500
C1271       C  0.46927208  0.88381805  0.58809746    -0.23500
C1272       C  0.48536882  0.85595984  0.58929281     0.19400
F1273       F  0.47018191  0.82930980  0.59115150    -0.13500
F1274       F  0.53211723  0.82825406  0.59165664    -0.15800
F1275       F  0.47183072  0.93850432  0.58571849    -0.15900
F1276       F  0.53220138  0.93752694  0.58610447    -0.13500
C1277       C  0.91280623  0.38062979  0.48870073     0.24500
C1278       C  0.88597013  0.37472317  0.50482372    -0.23600
C1279       C  0.85879271  0.37092685  0.48836288     0.19400
C1280       C  0.85866160  0.37268500  0.45636107     0.24500
C1281       C  0.88560996  0.37882736  0.44042644    -0.23500
C1282       C  0.91258454  0.38283505  0.45707167     0.19400
F1283       F  0.93917496  0.38842728  0.44271096    -0.13500
F1284       F  0.93945550  0.38508843  0.50358299    -0.15800
F1285       F  0.83211875  0.36909603  0.44107763    -0.15900
F1286       F  0.83251474  0.36507359  0.50314643    -0.13500
C1287       C  0.86628186  0.48237221  0.62119587     0.24500
C1288       C  0.87638779  0.46573430  0.59582473    -0.23600
C1289       C  0.88446225  0.48152921  0.56918057     0.19400
C1290       C  0.88375939  0.51329266  0.56835652     0.24500
C1291       C  0.87537642  0.53004324  0.59428103    -0.23500
C1292       C  0.86603587  0.51426035  0.62052131     0.19400
F1293       F  0.85835559  0.52958533  0.64613047    -0.13500
F1294       F  0.85820587  0.46788842  0.64721761    -0.15800
F1295       F  0.89129230  0.52770078  0.54208072    -0.15900
F1296       F  0.89298679  0.46617519  0.54376536    -0.13500
C1297       C  0.05513566  0.23086086  0.55378848     0.24500
C1298       C  0.06761870  0.23191080  0.52428328    -0.23600
C1299       C  0.07501031  0.26034604  0.51163579     0.19400
C1300       C  0.06885167  0.28697308  0.52738670     0.24500
C1301       C  0.05617163  0.28600497  0.55658360    -0.23500
C1302       C  0.04961876  0.25774597  0.56976980     0.19400
F1303       F  0.03871283  0.25629001  0.59860512    -0.13500
F1304       F  0.04742253  0.20402567  0.56687948    -0.15800
F1305       F  0.07764051  0.31358112  0.51482548    -0.15900
F1306       F  0.08808573  0.26259247  0.48376476    -0.13500
C1307       C  0.03351878  0.26393864  0.33079237     0.24500
C1308       C  0.04486044  0.29013612  0.34503802    -0.23600
C1309       C  0.05947556  0.28702187  0.37347434     0.19400
C1310       C  0.06157769  0.25898665  0.38798518     0.24500
C1311       C  0.04879022  0.23290191  0.37480253    -0.23500
C1312       C  0.03502311  0.23557643  0.34579741     0.19400
F1313       F  0.02249962  0.21092164  0.33229577    -0.13500
F1314       F  0.02026489  0.26592692  0.30289080    -0.15800
F1315       F  0.07497869  0.25797217  0.41589504    -0.15900
F1316       F  0.07255831  0.31119510  0.38731429    -0.13500
C1317       C  0.94640888  0.29790882  0.40674695     0.24500
C1318       C  0.95021778  0.29959469  0.37486663    -0.23600
C1319       C  0.95161337  0.27228856  0.35811315     0.19400
C1320       C  0.95273773  0.24427394  0.37325443     0.24500
C1321       C  0.95284656  0.24325725  0.40515870    -0.23500
C1322       C  0.94714515  0.26993265  0.42158538     0.19400
F1323       F  0.94725837  0.26930387  0.45254147    -0.13500
F1324       F  0.94364647  0.32332881  0.42404076    -0.15800
F1325       F  0.95777128  0.21851113  0.35698911    -0.15900
F1326       F  0.95316853  0.27259672  0.32724209    -0.13500
C1327       C  0.97368472  0.24473299  0.55877232     0.24500
C1328       C  0.98536434  0.25444280  0.53054961    -0.23600
C1329       C  0.98671962  0.28587732  0.52421061     0.19400
C1330       C  0.97601027  0.30697607  0.54530185     0.24500
C1331       C  0.96327828  0.29702182  0.57273688    -0.23500
C1332       C  0.96280988  0.26583944  0.57959025     0.19400
F1333       F  0.95135673  0.25570797  0.60641165    -0.13500
F1334       F  0.97289631  0.21482604  0.56658374    -0.15800
F1335       F  0.97649640  0.33702039  0.53808188    -0.15900
F1336       F  0.99801056  0.29635779  0.49748316    -0.13500
C1337       C  0.13661587  0.23265828  0.55993122     0.24500
C1338       C  0.14590113  0.23369320  0.52922076    -0.23600
C1339       C  0.16021537  0.26042540  0.51889318     0.19400
C1340       C  0.16377233  0.28557008  0.53784666     0.24500
C1341       C  0.15253361  0.28558894  0.56779718    -0.23500
C1342       C  0.13955832  0.25842554  0.57891381     0.19400
F1343       F  0.12860100  0.25707640  0.60771857    -0.13500
F1344       F  0.12387066  0.20709765  0.57138327    -0.15800
F1345       F  0.17777929  0.31042758  0.52627402    -0.15900
F1346       F  0.17142585  0.26246608  0.49021618    -0.13500
C1347       C  0.15465522  0.28258125  0.37488537     0.24500
C1348       C  0.13993193  0.27983799  0.34680464    -0.23600
C1349       C  0.12619554  0.25187298  0.33905789     0.19400
C1350       C  0.12615847  0.22761113  0.35960502     0.24500
C1351       C  0.14004174  0.23076124  0.38804793    -0.23500
C1352       C  0.15437241  0.25848948  0.39545884     0.19400
F1353       F  0.16806563  0.26243766  0.42293509    -0.13500
F1354       F  0.16782555  0.30911553  0.38323856    -0.15800
F1355       F  0.11301058  0.20101217  0.35149551    -0.15900
F1356       F  0.11192877  0.24830632  0.31182951    -0.13500
C1357       C  0.23429688  0.14143088  0.36450454     0.24500
C1358       C  0.23569073  0.15715495  0.39228907    -0.23600
C1359       C  0.26052767  0.17650039  0.39774431     0.19400
C1360       C  0.28444347  0.17825978  0.37680952     0.24500
C1361       C  0.28385936  0.16083547  0.35002137    -0.23500
C1362       C  0.25785482  0.14345861  0.34360253     0.19400
F1363       F  0.25573060  0.12718308  0.31742705    -0.13500
F1364       F  0.21047568  0.12322884  0.35776676    -0.15800
F1365       F  0.30878512  0.19570658  0.38355635    -0.15900
F1366       F  0.26165784  0.19386484  0.42324402    -0.13500
C1367       C  0.23229780  0.13439616  0.55912382     0.24500
C1368       C  0.23159822  0.15100354  0.53199639    -0.23600
C1369       C  0.25637318  0.17003486  0.52487074     0.19400
C1370       C  0.28158910  0.17176013  0.54414820     0.24500
C1371       C  0.28266218  0.15459983  0.57104316    -0.23500
C1372       C  0.25725576  0.13650074  0.57868458     0.19400
F1373       F  0.25684864  0.11995670  0.60485835    -0.13500
F1374       F  0.20859086  0.11661231  0.56706267    -0.15800
F1375       F  0.30552820  0.18896370  0.53560465    -0.15900
F1376       F  0.25652275  0.18664751  0.49871937    -0.13500
C1377       C  0.75490207  0.16229946  0.53179735     0.24500
C1378       C  0.78133437  0.14537555  0.53946693    -0.23600
C1379       C  0.78254914  0.13019146  0.56750755     0.19400
C1380       C  0.75749332  0.13106296  0.58702463     0.24500
C1381       C  0.73067615  0.14714960  0.57880845    -0.23500
C1382       C  0.73002076  0.16329177  0.55127766     0.19400
F1383       F  0.70458475  0.17843218  0.54214453    -0.13500
F1384       F  0.75271340  0.17737280  0.50479847    -0.15800
F1385       F  0.75912520  0.11529951  0.61363538    -0.15900
F1386       F  0.80790098  0.11460504  0.57606158    -0.13500
C1387       C  0.78093312  0.14926577  0.36500035     0.24500
C1388       C  0.77694605  0.15308424  0.39662877    -0.23600
C1389       C  0.74864710  0.16453629  0.40679128     0.19400
C1390       C  0.72458499  0.16963338  0.38631956     0.24500
C1391       C  0.72791656  0.16321094  0.35518125    -0.23500
C1392       C  0.75671191  0.15407370  0.34466785     0.19400
F1393       F  0.76102789  0.14846734  0.31458958    -0.13500
F1394       F  0.80812033  0.14036776  0.35355862    -0.15800
F1395       F  0.69725711  0.17832470  0.39750604    -0.15900
F1396       F  0.74365843  0.16987991  0.43680451    -0.13500
C1397       C  0.87556225  0.22593220  0.36404874     0.24500
C1398       C  0.86735681  0.22744706  0.39474916    -0.23600
C1399       C  0.85521566  0.25489865  0.40632481     0.19400
C1400       C  0.85138292  0.28032048  0.38773323     0.24500
C1401       C  0.86055918  0.27928524  0.35735013    -0.23500
C1402       C  0.87233552  0.25174285  0.34548786     0.19400
F1403       F  0.88166179  0.25026334  0.31608450    -0.13500
F1404       F  0.88586813  0.19945468  0.35189822    -0.15800
F1405       F  0.84073179  0.30657647  0.40009962    -0.15900
F1406       F  0.84679065  0.25702430  0.43595511    -0.13500
C1407       C  0.87387812  0.22917887  0.56433692     0.24500
C1408       C  0.86213815  0.23147845  0.53449043    -0.23600
C1409       C  0.84507168  0.25755828  0.52655235     0.19400
C1410       C  0.84032519  0.28087241  0.54750666     0.24500
C1411       C  0.85268903  0.27912580  0.57715058    -0.23500
C1412       C  0.86921958  0.25270292  0.58542556     0.19400
F1413       F  0.88181470  0.24992639  0.61358119    -0.13500
F1414       F  0.89024347  0.20431828  0.57308410    -0.15800
F1415       F  0.82391921  0.30554476  0.53829422    -0.15900
F1416       F  0.83203492  0.26037732  0.49860657    -0.13500
C1417       C  0.29857828  0.03465544  0.40975321     0.24500
C1418       C  0.26828828  0.03590381  0.39943881    -0.23600
C1419       C  0.26221493  0.04572266  0.36947443     0.19400
C1420       C  0.28591462  0.05465108  0.35046850     0.24500
C1421       C  0.31607421  0.05398276  0.36115491    -0.23500
C1422       C  0.32209295  0.04349874  0.39086502     0.19400
F1423       F  0.35088256  0.04190657  0.40192505    -0.13500
F1424       F  0.30581500  0.02412483  0.43801394    -0.15800
F1425       F  0.27914661  0.06499900  0.32205551    -0.15900
F1426       F  0.23334310  0.04722940  0.35869703    -0.13500
C1427       C  0.26730687  0.07066980  0.51887596     0.24500
C1428       C  0.24444647  0.05493270  0.53410351    -0.23600
C1429       C  0.24858957  0.04723813  0.56492538     0.19400
C1430       C  0.27675992  0.05140695  0.57905278     0.24500
C1431       C  0.30101869  0.06351463  0.56240128    -0.23500
C1432       C  0.29538714  0.07488006  0.53279090     0.19400
F1433       F  0.31736647  0.08911128  0.51670461    -0.13500
F1434       F  0.26377765  0.07831764  0.48905765    -0.15800
F1435       F  0.28078061  0.04179107  0.60821926    -0.15900
F1436       F  0.22644224  0.03250108  0.58020832    -0.13500
C1437       C  0.25990787  0.92335417  0.53398389     0.24500
C1438       C  0.23579427  0.94191920  0.54365384    -0.23600
C1439       C  0.23766236  0.95585256  0.57255293     0.19400
C1440       C  0.26511387  0.95539295  0.58878805     0.24500
C1441       C  0.29061927  0.94110917  0.57609738    -0.23500
C1442       C  0.28718558  0.92360985  0.54958598     0.19400
F1443       F  0.31048916  0.90683938  0.53834865    -0.13500
F1444       F  0.25819718  0.90716300  0.50771023    -0.15800
F1445       F  0.26728755  0.97048218  0.61563031    -0.15900
F1446       F  0.21385269  0.97190406  0.58386278    -0.13500
C1447       C  0.26225585  0.91429635  0.39774519     0.24500
C1448       C  0.23693750  0.93186702  0.38987213    -0.23600
C1449       C  0.23549771  0.94564003  0.36084014     0.19400
C1450       C  0.26149072  0.94652951  0.34256376     0.24500
C1451       C  0.28866282  0.93371169  0.35352405    -0.23500
C1452       C  0.28807116  0.91578494  0.38013245     0.19400
F1453       F  0.31302698  0.90079768  0.39018570    -0.13500
F1454       F  0.26384022  0.90028962  0.42536264    -0.15800
F1455       F  0.26086406  0.96226533  0.31591973    -0.15900
F1456       F  0.21073456  0.96225068  0.35244035    -0.13500
C1457       C  0.13642502  0.77488074  0.35534034     0.24500
C1458       C  0.13204664  0.77432080  0.38708262    -0.23600
C1459       C  0.13144796  0.74589642  0.40180108     0.19400
C1460       C  0.13574378  0.71880860  0.38560677     0.24500
C1461       C  0.14089292  0.71909547  0.35384043    -0.23500
C1462       C  0.14047633  0.74758177  0.33882606     0.19400
F1463       F  0.14518726  0.74915218  0.30834280    -0.13500
F1464       F  0.13881959  0.80193897  0.34063334    -0.15800
F1465       F  0.13489551  0.69222296  0.40139682    -0.15900
F1466       F  0.12817658  0.74442629  0.43251422    -0.13500
C1467       C  0.13840292  0.77351352  0.55957122     0.24500
C1468       C  0.14505527  0.76931183  0.52854790    -0.23600
C1469       C  0.15644732  0.74062436  0.51918566     0.19400
C1470       C  0.15897804  0.71635458  0.53989839     0.24500
C1471       C  0.15009879  0.72013385  0.57032707    -0.23500
C1472       C  0.14091403  0.74931703  0.58010769     0.19400
F1473       F  0.13223321  0.75395262  0.60939232    -0.13500
F1474       F  0.12784578  0.80065745  0.56996520    -0.15800
F1475       F  0.16783479  0.68860738  0.52956147    -0.15900
F1476       F  0.16459163  0.73566747  0.48982036    -0.13500
C1477       C  0.22566052  0.86372915  0.56179142     0.24500
C1478       C  0.22737476  0.84904914  0.53361910    -0.23600
C1479       C  0.25369224  0.83173390  0.52682646     0.19400
C1480       C  0.27863514  0.83122117  0.54669983     0.24500
C1481       C  0.27778040  0.84772624  0.57396845    -0.23500
C1482       C  0.25040228  0.86290023  0.58186256     0.19400
F1483       F  0.24793975  0.87826443  0.60855011    -0.13500
F1484       F  0.20006970  0.87898642  0.56991936    -0.15800
F1485       F  0.30418540  0.81605645  0.53831746    -0.15900
F1486       F  0.25578986  0.81605719  0.50029179    -0.13500
C1487       C  0.25517864  0.83324654  0.39909308     0.24500
C1488       C  0.22796683  0.84818258  0.39010791    -0.23600
C1489       C  0.22511018  0.85821025  0.35980476     0.19400
C1490       C  0.24951825  0.85555696  0.33981680     0.24500
C1491       C  0.27757169  0.84316130  0.34970257    -0.23500
C1492       C  0.27961423  0.83071914  0.37904412     0.19400
F1493       F  0.30607007  0.81836044  0.38926649    -0.13500
F1494       F  0.25872489  0.82179238  0.42765509    -0.15800
F1495       F  0.24633910  0.86714476  0.31124107    -0.15900
F1496       F  0.19926090  0.87201265  0.34977271    -0.13500
C1497       C  0.74376396  0.07446323  0.53525442     0.24500
C1498       C  0.76699738  0.05562676  0.54704871    -0.23600
C1499       C  0.76192245  0.03991158  0.57455232     0.19400
C1500       C  0.73298085  0.03988440  0.58760852     0.24500
C1501       C  0.70900173  0.05565089  0.57332038    -0.23500
C1502       C  0.71507084  0.07399401  0.54784327     0.19400
F1503       F  0.69322182  0.09188030  0.53503759    -0.13500
F1504       F  0.74808361  0.09170802  0.50991525    -0.15800
F1505       F  0.72806326  0.02338572  0.61326447    -0.15900
F1506       F  0.78433438  0.02310183  0.58770943    -0.13500
C1507       C  0.76570227  0.05466710  0.36942555     0.24500
C1508       C  0.76745265  0.06869457  0.39818834    -0.23600
C1509       C  0.74349110  0.08743948  0.40767388     0.19400
C1510       C  0.71679171  0.08909593  0.39077863     0.24500
C1511       C  0.71360625  0.07235777  0.36367373    -0.23500
C1512       C  0.73889133  0.05659800  0.35215430     0.19400
F1513       F  0.73679080  0.04093859  0.32563132    -0.13500
F1514       F  0.78811568  0.03548985  0.36019361    -0.15800
F1515       F  0.69360302  0.10627565  0.40169528    -0.15900
F1516       F  0.74438826  0.10064936  0.43560587    -0.13500
C1517       C  0.71444221  0.97336265  0.41021620     0.24500
C1518       C  0.74512718  0.96738924  0.40365740    -0.23600
C1519       C  0.75377884  0.95942552  0.37401171     0.19400
C1520       C  0.73200087  0.95624106  0.35157943     0.24500
C1521       C  0.70122638  0.95988921  0.35873363    -0.23500
C1522       C  0.69258529  0.96989891  0.38767555     0.19400
F1523       F  0.66294378  0.97432235  0.39470320    -0.13500
F1524       F  0.70561813  0.98308621  0.43817758    -0.15800
F1525       F  0.74076120  0.94761831  0.32322796    -0.15900
F1526       F  0.78331865  0.95440541  0.36680810    -0.13500
C1527       C  0.71858960  0.92345089  0.54162298     0.24500
C1528       C  0.71427361  0.93487151  0.57131401    -0.23600
C1529       C  0.73950400  0.94569625  0.58753365     0.19400
C1530       C  0.76719770  0.94950019  0.57259487     0.24500
C1531       C  0.76962225  0.94292628  0.54143419    -0.23500
C1532       C  0.74616703  0.92733687  0.52691688     0.19400
F1533       F  0.74860059  0.91969857  0.49705480    -0.13500
F1534       F  0.69578703  0.90961761  0.52624813    -0.15800
F1535       F  0.79049288  0.96299772  0.58743543    -0.15900
F1536       F  0.73682645  0.95467898  0.61695580    -0.13500
C1537       C  0.72133803  0.83145597  0.38038699     0.24500
C1538       C  0.72067337  0.84740025  0.35249983    -0.23600
C1539       C  0.74693921  0.86365844  0.34415010     0.19400
C1540       C  0.77238267  0.86502905  0.36377645     0.24500
C1541       C  0.77227720  0.85029521  0.39234565    -0.23500
C1542       C  0.74656278  0.83281790  0.39984891     0.19400
F1543       F  0.74567873  0.81651489  0.42615217    -0.13500
F1544       F  0.69718746  0.81475543  0.38935142    -0.15800
F1545       F  0.79673345  0.88154327  0.35511979    -0.15900
F1546       F  0.74764303  0.87939827  0.31753115    -0.13500
C1547       C  0.77579307  0.86101759  0.56432744     0.24500
C1548       C  0.77293609  0.85319514  0.53365403    -0.23600
C1549       C  0.74600321  0.83939778  0.52335513     0.19400
C1550       C  0.72192712  0.83438187  0.54318721     0.24500
C1551       C  0.72420107  0.84328725  0.57369158    -0.23500
C1552       C  0.75180469  0.85585834  0.58426032     0.19400
F1553       F  0.75501176  0.86454293  0.61377159    -0.13500
F1554       F  0.80204916  0.87281999  0.57516584    -0.15800
F1555       F  0.69574920  0.82274197  0.53201983    -0.15900
F1556       F  0.74299125  0.83087818  0.49378569    -0.13500
C1557       C  0.86595488  0.77031249  0.56509907     0.24500
C1558       C  0.85544314  0.76828508  0.53475154    -0.23600
C1559       C  0.84025371  0.74156739  0.52603323     0.19400
C1560       C  0.83652921  0.71737839  0.54645837     0.24500
C1561       C  0.84829273  0.71858610  0.57640519    -0.23500
C1562       C  0.86255578  0.74577427  0.58560369     0.19400
F1563       F  0.87396578  0.74847154  0.61422490    -0.13500
F1564       F  0.88010459  0.79582225  0.57485991    -0.15800
F1565       F  0.82173518  0.69236298  0.53636967    -0.15900
F1566       F  0.82823322  0.73882978  0.49764761    -0.13500
C1567       C  0.86567992  0.77539742  0.36003605     0.24500
C1568       C  0.86864453  0.77339136  0.39187021    -0.23600
C1569       C  0.86492999  0.74508307  0.40606557     0.19400
C1570       C  0.85572484  0.71988871  0.38946965     0.24500
C1571       C  0.85147796  0.72171581  0.35763760    -0.23500
C1572       C  0.85772059  0.74957966  0.34292276     0.19400
F1573       F  0.85504399  0.75215234  0.31220964    -0.13500
F1574       F  0.86833707  0.80271315  0.34584624    -0.15800
F1575       F  0.85049160  0.69378400  0.40504639    -0.15900
F1576       F  0.86720612  0.74260463  0.43685802    -0.13500
C1577       C  0.04095812  0.77382249  0.35695820     0.24500
C1578       C  0.05027919  0.77398172  0.38760849    -0.23600
C1579       C  0.05480044  0.74605093  0.40290198     0.19400
C1580       C  0.05014723  0.71873879  0.38786600     0.24500
C1581       C  0.04318366  0.71865007  0.35680278    -0.23500
C1582       C  0.03807674  0.74631653  0.34147993     0.19400
F1583       F  0.03212104  0.74660159  0.31110101    -0.13500
F1584       F  0.03506412  0.80030851  0.34198061    -0.15800
F1585       F  0.05510431  0.69226052  0.40309094    -0.15900
F1586       F  0.06250166  0.74498321  0.43285796    -0.13500
C1587       C  0.05591176  0.77208251  0.56742949     0.24500
C1588       C  0.06718847  0.77278840  0.53732596    -0.23600
C1589       C  0.07606476  0.74511771  0.52382876     0.19400
C1590       C  0.07178617  0.71761305  0.53884220     0.24500
C1591       C  0.05858363  0.71661227  0.56799371    -0.23500
C1592       C  0.05179222  0.74422587  0.58264776     0.19400
F1593       F  0.04022418  0.74424991  0.61124152    -0.13500
F1594       F  0.04760829  0.79819168  0.58169584    -0.15800
F1595       F  0.08102550  0.69182700  0.52459934    -0.15900
F1596       F  0.08769878  0.74428767  0.49525255    -0.13500
C1597       C  0.95694608  0.73084853  0.57999590     0.24500
C1598       C  0.96089911  0.70012993  0.57194254    -0.23600
C1599       C  0.97847454  0.69244806  0.54659835     0.19400
C1600       C  0.99031949  0.71536373  0.52837431     0.24500
C1601       C  0.98459830  0.74629288  0.53535356    -0.23500
C1602       C  0.96834998  0.75368596  0.56173472     0.19400
F1603       F  0.96310655  0.78302212  0.56993421    -0.13500
F1604       F  0.94112531  0.73893434  0.60522930    -0.15800
F1605       F  0.00670731  0.70707436  0.50357900    -0.15900
F1606       F  0.98272203  0.66293983  0.53841657    -0.13500
C1607       C  0.94214946  0.74320715  0.36063568     0.24500
C1608       C  0.94579890  0.71237570  0.36871454    -0.23600
C1609       C  0.95659541  0.70444016  0.39768988     0.19400
C1610       C  0.96302261  0.72704152  0.41862383     0.24500
C1611       C  0.96024080  0.75788916  0.41029979    -0.23500
C1612       C  0.94940426  0.76586732  0.38133058     0.19400
F1613       F  0.94817038  0.79540785  0.37222143    -0.13500
F1614       F  0.93233317  0.75136192  0.33237209    -0.15800
F1615       F  0.97365753  0.71886881  0.44659305    -0.15900
F1616       F  0.96038491  0.67485261  0.40598287    -0.13500
C1617       C  0.25166797  0.56644765  0.03883954     0.24500
C1618       C  0.22670737  0.57973207  0.02363747    -0.23600
C1619       C  0.22984535  0.60890918  0.01064755     0.19400
C1620       C  0.25788776  0.62359791  0.01124466     0.24500
C1621       C  0.28323751  0.60916340  0.02445783    -0.23500
C1622       C  0.27952946  0.58091441  0.03913064     0.19400
F1623       F  0.30290403  0.56715552  0.05412687    -0.13500
F1624       F  0.24987355  0.53841414  0.05180412    -0.15800
F1625       F  0.26055049  0.65128160  0.99780619    -0.15900
F1626       F  0.20617277  0.62250717  0.99597567    -0.13500
C1627       C  0.25386781  0.43861410  0.04809908     0.24500
C1628       C  0.22816689  0.42685920  0.03330627    -0.23600
C1629       C  0.23058059  0.39794546  0.01938429     0.19400
C1630       C  0.25862835  0.38267072  0.01799061     0.24500
C1631       C  0.28467549  0.39594736  0.03047447    -0.23500
C1632       C  0.28163149  0.42342768  0.04665456     0.19400
F1633       F  0.30561646  0.43576139  0.06144980    -0.13500
F1634       F  0.25266972  0.46570560  0.06288106    -0.15800
F1635       F  0.26056573  0.35566772  0.00317291    -0.15900
F1636       F  0.20629221  0.38523454  0.00542545    -0.13500
C1637       C  0.25200055  0.40286086  0.93672871     0.24500
C1638       C  0.25896904  0.43203637  0.94740337    -0.23600
C1639       C  0.28929731  0.44181804  0.94749892     0.19400
C1640       C  0.31177577  0.42384815  0.93435167     0.24500
C1641       C  0.30419234  0.39568152  0.92175376    -0.23500
C1642       C  0.27452602  0.38472472  0.92423164     0.19400
F1643       F  0.26716797  0.35671805  0.91364759    -0.13500
F1644       F  0.22341513  0.39178828  0.93840134    -0.15800
F1645       F  0.34031596  0.43492732  0.93195814    -0.15900
F1646       F  0.29706457  0.46923875  0.95907120    -0.13500
C1647       C  0.27978780  0.54957488  0.92822340     0.24500
C1648       C  0.24871093  0.55555726  0.92357752    -0.23600
C1649       C  0.23965125  0.57840719  0.90304019     0.19400
C1650       C  0.26131948  0.59626164  0.88889999     0.24500
C1651       C  0.29239959  0.59088142  0.89429614    -0.23500
C1652       C  0.30144138  0.56681523  0.91341738     0.19400
F1653       F  0.33120048  0.55981804  0.91781240    -0.13500
F1654       F  0.28935120  0.52740196  0.94762798    -0.15800
F1655       F  0.25173878  0.61966779  0.87097833    -0.15900
F1656       F  0.20987221  0.58482340  0.89804303    -0.13500
C1657       C  0.13785128  0.62317716  0.70883707     0.24500
C1658       C  0.14213449  0.60842113  0.68052934    -0.23600
C1659       C  0.14174219  0.57628982  0.68026165     0.19400
C1660       C  0.13835698  0.55966212  0.70718161     0.24500
C1661       C  0.13551033  0.57418644  0.73544672    -0.23500
C1662       C  0.13490183  0.60619332  0.73606099     0.19400
F1663       F  0.13278766  0.62100165  0.76305942    -0.13500
F1664       F  0.13684510  0.65400662  0.71030374    -0.15800
F1665       F  0.13886201  0.52885409  0.70575368    -0.15900
F1666       F  0.14446451  0.56052316  0.65384509    -0.13500
C1667       C  0.14153655  0.38445715  0.70644413     0.24500
C1668       C  0.14999335  0.39513118  0.67743960    -0.23600
C1669       C  0.15880518  0.42554588  0.67429501     0.19400
C1670       C  0.15738579  0.44535022  0.69924023     0.24500
C1671       C  0.14674623  0.43519569  0.72787330    -0.23500
C1672       C  0.13968624  0.40418983  0.73123740     0.19400
F1673       F  0.13041084  0.39281375  0.75839952    -0.13500
F1674       F  0.13357775  0.35493634  0.71046771    -0.15800
F1675       F  0.16629158  0.47451608  0.69507672    -0.15900
F1676       F  0.16680868  0.43670093  0.64664294    -0.13500
C1677       C  0.25628729  0.43637723  0.80208919     0.24500
C1678       C  0.22901861  0.42686699  0.81557312    -0.23600
C1679       C  0.22749591  0.39684597  0.82666305     0.19400
C1680       C  0.25263254  0.37682159  0.82403248     0.24500
C1681       C  0.27990967  0.38638400  0.81017656    -0.23500
C1682       C  0.28116367  0.41666444  0.79943413     0.19400
F1683       F  0.30679444  0.42782060  0.78671646    -0.13500
F1684       F  0.25902434  0.46521769  0.79130696    -0.15800
F1685       F  0.25020425  0.34813113  0.83519071    -0.15900
F1686       F  0.20137605  0.38651791  0.83901013    -0.13500
C1687       C  0.25842195  0.55507910  0.81083488     0.24500
C1688       C  0.22965966  0.56876176  0.81449166    -0.23600
C1689       C  0.22692899  0.60039610  0.80930282     0.19400
C1690       C  0.25236383  0.61759121  0.80048324     0.24500
C1691       C  0.28066410  0.60328334  0.79536115    -0.23500
C1692       C  0.28298514  0.57168737  0.80041446     0.19400
F1693       F  0.30945132  0.55644658  0.79601961    -0.13500
F1694       F  0.26295378  0.52501784  0.81669570    -0.15800
F1695       F  0.24921967  0.64811873  0.79674286    -0.15900
F1696       F  0.19968288  0.61464071  0.81222816    -0.13500
C1697       C  0.13185307  0.39351725  0.18619266     0.24500
C1698       C  0.12747675  0.42517255  0.18743693    -0.23600
C1699       C  0.12908446  0.43993214  0.21560597     0.19400
C1700       C  0.13475036  0.42364661  0.24216124     0.24500
C1701       C  0.13880822  0.39177539  0.24137472    -0.23500
C1702       C  0.13712674  0.37681465  0.21306289     0.19400
F1703       F  0.14166753  0.34629248  0.21127537    -0.13500
F1704       F  0.13319905  0.37919035  0.15887824    -0.15800
F1705       F  0.13613012  0.43944806  0.26865891    -0.15900
F1706       F  0.12690235  0.47074263  0.21713970    -0.13500
C1707       C  0.15317309  0.55784724  0.22206477     0.24500
C1708       C  0.14123651  0.56677494  0.19341681    -0.23600
C1709       C  0.13366708  0.59767880  0.18891560     0.19400
C1710       C  0.13568668  0.61840803  0.21287522     0.24500
C1711       C  0.14543303  0.60901872  0.24207391    -0.23500
C1712       C  0.15528610  0.57878273  0.24607903     0.19400
F1713       F  0.16503987  0.56889736  0.27376669    -0.13500
F1714       F  0.16258135  0.52877259  0.22710707    -0.15800
F1715       F  0.12643524  0.64756712  0.20788236    -0.15900
F1716       F  0.12309074  0.60787064  0.16160161    -0.13500
C1717       C  0.24018658  0.61898773  0.10518269     0.24500
C1718       C  0.26817836  0.60883716  0.11762393    -0.23600
C1719       C  0.27133130  0.57831329  0.12634226     0.19400
C1720       C  0.24756262  0.55813251  0.12159130     0.24500
C1721       C  0.22000176  0.56810482  0.10833313    -0.23500
C1722       C  0.21638059  0.59874986  0.10045968     0.19400
F1723       F  0.18969156  0.60919433  0.08878366    -0.13500
F1724       F  0.23635685  0.64843845  0.09642901    -0.15800
F1725       F  0.25159311  0.52849074  0.12956314    -0.15900
F1726       F  0.29805209  0.56749110  0.13750161    -0.13500
C1727       C  0.24788118  0.43536827  0.12842171     0.24500
C1728       C  0.22078052  0.42554948  0.11392063    -0.23600
C1729       C  0.21924380  0.39479196  0.10537912     0.19400
C1730       C  0.24476031  0.37547284  0.10842417     0.24500
C1731       C  0.27262997  0.38615327  0.12043276    -0.23500
C1732       C  0.27327202  0.41599440  0.13159205     0.19400
F1733       F  0.29924015  0.42731539  0.14355417    -0.13500
F1734       F  0.25034651  0.46416476  0.13914652    -0.15800
F1735       F  0.24260992  0.34647315  0.09810057    -0.15900
F1736       F  0.19346366  0.38356322  0.09292276    -0.13500
C1737       C  0.05684679  0.45586792  0.22397229     0.24500
C1738       C  0.05542639  0.44554457  0.19360205    -0.23600
C1739       C  0.04868522  0.41483358  0.18802872     0.19400
C1740       C  0.04419539  0.39488227  0.21237373     0.24500
C1741       C  0.04516250  0.40552402  0.24254616    -0.23500
C1742       C  0.05055739  0.43633253  0.24792428     0.19400
F1743       F  0.05112714  0.44753550  0.27657454    -0.13500
F1744       F  0.06330847  0.48525307  0.23075614    -0.15800
F1745       F  0.04014439  0.36484353  0.20665215    -0.15900
F1746       F  0.04703926  0.40397750  0.15914997    -0.13500
C1747       C  0.06266621  0.59071213  0.24114193     0.24500
C1748       C  0.04726768  0.61807298  0.24709711    -0.23600
C1749       C  0.03416412  0.63448575  0.22279311     0.19400
C1750       C  0.03495316  0.62264509  0.19314911     0.24500
C1751       C  0.04894493  0.59430979  0.18752867    -0.23500
C1752       C  0.06370376  0.57909256  0.21187287     0.19400
F1753       F  0.07779835  0.55179783  0.20802096    -0.13500
F1754       F  0.07747597  0.57527526  0.26366697    -0.15800
F1755       F  0.02129882  0.63836229  0.17016832    -0.15900
F1756       F  0.01989042  0.66145154  0.22791698    -0.13500
C1757       C  0.95273777  0.61024706  0.20625154     0.24500
C1758       C  0.95021443  0.57851975  0.20433313    -0.23600
C1759       C  0.93979851  0.56216341  0.22950952     0.19400
C1760       C  0.93477236  0.57677309  0.25717035     0.24500
C1761       C  0.94036853  0.60820467  0.26023593    -0.23500
C1762       C  0.94796093  0.62506106  0.23403713     0.19400
F1763       F  0.95214232  0.65558492  0.23552720    -0.13500
F1764       F  0.96234571  0.62650206  0.18188077    -0.15800
F1765       F  0.92516939  0.55979774  0.28108064    -0.15900
F1766       F  0.93720886  0.53143099  0.22799816    -0.13500
C1767       C  0.97093388  0.42029616  0.21720304     0.24500
C1768       C  0.97934573  0.45030904  0.22436675    -0.23600
C1769       C  0.98066860  0.45924671  0.25518417     0.19400
C1770       C  0.97353026  0.43859003  0.27819730     0.24500
C1771       C  0.96473713  0.40895948  0.27069861    -0.23500
C1772       C  0.96407393  0.39987601  0.24012376     0.19400
F1773       F  0.95627427  0.37109042  0.23230557    -0.13500
F1774       F  0.96992991  0.41013235  0.18802235    -0.15800
F1775       F  0.97384981  0.44798265  0.30761169    -0.15900
F1776       F  0.98901290  0.48781013  0.26316892    -0.13500
C1777       C  0.71963791  0.41130669  0.12728244     0.24500
C1778       C  0.72106884  0.38357030  0.11177180    -0.23600
C1779       C  0.74894734  0.37425443  0.09878184     0.19400
C1780       C  0.77416193  0.39338820  0.09934657     0.24500
C1781       C  0.77205465  0.42189971  0.11328324    -0.23500
C1782       C  0.74490544  0.43014132  0.12820379     0.19400
F1783       F  0.74249360  0.45713046  0.14295350    -0.13500
F1784       F  0.69315153  0.42139373  0.13942433    -0.15800
F1785       F  0.80060570  0.38392121  0.08667927    -0.15900
F1786       F  0.75135165  0.34702813  0.08440024    -0.13500
C1787       C  0.73687635  0.60998630  0.14762333     0.24500
C1788       C  0.70778881  0.59790422  0.15262723    -0.23600
C1789       C  0.70466103  0.56610689  0.15167291     0.19400
C1790       C  0.72919857  0.54724941  0.14306611     0.24500
C1791       C  0.75776504  0.55970040  0.13563985    -0.23500
C1792       C  0.76134978  0.59132865  0.13923269     0.19400
F1793       F  0.78856618  0.60459694  0.13431563    -0.13500
F1794       F  0.74116302  0.64052140  0.14885757    -0.15800
F1795       F  0.72442938  0.51690350  0.14080117    -0.15900
F1796       F  0.67719230  0.55340389  0.15634143    -0.13500
C1797       C  0.85587832  0.62043110  0.21943796     0.24500
C1798       C  0.84324034  0.61227742  0.24782525    -0.23600
C1799       C  0.83290102  0.58257882  0.25216091     0.19400
C1800       C  0.83630502  0.56112244  0.22911643     0.24500
C1801       C  0.84969512  0.56908283  0.20104144    -0.23500
C1802       C  0.85925990  0.59895673  0.19634856     0.19400
F1803       F  0.87122258  0.60756057  0.16925530    -0.13500
F1804       F  0.86620068  0.64904881  0.21455470    -0.15800
F1805       F  0.82689534  0.53224530  0.23448191    -0.15900
F1806       F  0.82153527  0.57364176  0.27940715    -0.13500
C1807       C  0.87483749  0.39888750  0.19937882     0.24500
C1808       C  0.85703816  0.42553479  0.19842369    -0.23600
C1809       C  0.83663577  0.43128917  0.22240486     0.19400
C1810       C  0.83551640  0.41219921  0.24765888     0.24500
C1811       C  0.85500686  0.38688840  0.25003340    -0.23500
C1812       C  0.87394594  0.37971473  0.22508407     0.19400
F1813       F  0.89287406  0.35522127  0.22623340    -0.13500
F1814       F  0.89409489  0.39221610  0.17626450    -0.15800
F1815       F  0.81597108  0.41930002  0.27042941    -0.15900
F1816       F  0.81750074  0.45567284  0.22156346    -0.13500
C1817       C  0.01863135  0.55478720  0.68379024     0.24500
C1818       C  0.02670043  0.55841585  0.71473775    -0.23600
C1819       C  0.04322772  0.58407092  0.72353183     0.19400
C1820       C  0.05061600  0.60613622  0.70209590     0.24500
C1821       C  0.04198661  0.60283566  0.67131349    -0.23500
C1822       C  0.02602377  0.57689201  0.66236206     0.19400
F1823       F  0.01831155  0.57238531  0.63274887    -0.13500
F1824       F  0.00320473  0.52993306  0.67420997    -0.15800
F1825       F  0.06595502  0.63103024  0.71165301    -0.15900
F1826       F  0.05100513  0.58869179  0.75311205    -0.13500
C1827       C  0.00242116  0.43028541  0.68078291     0.24500
C1828       C  0.01450719  0.42717610  0.71046842    -0.23600
C1829       C  0.03611107  0.40403634  0.71627212     0.19400
C1830       C  0.04547446  0.38468605  0.69282760     0.24500
C1831       C  0.03342874  0.38822525  0.66333941    -0.23500
C1832       C  0.01134636  0.41067981  0.65779179     0.19400
F1833       F  0.99935774  0.41463064  0.62946939    -0.13500
F1834       F  0.98238838  0.45280161  0.67342435    -0.15800
F1835       F  0.06782740  0.36399865  0.69847551    -0.15900
F1836       F  0.04899319  0.40070611  0.74424458    -0.13500
C1837       C  0.94151541  0.39373786  0.73958377     0.24500
C1838       C  0.92968574  0.42361468  0.74165152    -0.23600
C1839       C  0.91847306  0.43772914  0.71505861     0.19400
C1840       C  0.92196551  0.42391903  0.68691698     0.24500
C1841       C  0.93559663  0.39493893  0.68445020    -0.23500
C1842       C  0.94416932  0.37941456  0.71121027     0.19400
F1843       F  0.95627105  0.35095824  0.70985470    -0.13500
F1844       F  0.95188711  0.37894213  0.76479249    -0.15800
F1845       F  0.91251825  0.43960276  0.66191282    -0.15900
F1846       F  0.90603534  0.46607564  0.71574030    -0.13500
C1847       C  0.92804635  0.57000325  0.68248010     0.24500
C1848       C  0.93919672  0.59972130  0.67876703    -0.23600
C1849       C  0.94720401  0.61643064  0.70487003     0.19400
C1850       C  0.94581523  0.60296738  0.73378637     0.24500
C1851       C  0.93580963  0.57282112  0.73717199    -0.23500
C1852       C  0.92577335  0.55703588  0.71125850     0.19400
F1853       F  0.91571405  0.52801953  0.71330074    -0.13500
F1854       F  0.91917222  0.55312752  0.65822402    -0.15800
F1855       F  0.95505899  0.61907512  0.75843073    -0.15900
F1856       F  0.95692708  0.64554694  0.70244062    -0.13500
C1857       C  0.83623925  0.43003831  0.71775524     0.24500
C1858       C  0.85179270  0.42138602  0.74478374    -0.23600
C1859       C  0.86143249  0.39100053  0.74791955     0.19400
C1860       C  0.85857576  0.37080372  0.72347576     0.24500
C1861       C  0.84573877  0.38047559  0.69545621    -0.23500
C1862       C  0.83296577  0.40968687  0.69360279     0.19400
F1863       F  0.81960005  0.41955825  0.66742683    -0.13500
F1864       F  0.82455854  0.45852201  0.71419504    -0.15800
F1865       F  0.87030255  0.34227081  0.72649305    -0.15900
F1866       F  0.87519268  0.38121799  0.77393033    -0.13500
C1867       C  0.83768229  0.56119144  0.71424727     0.24500
C1868       C  0.85323207  0.56781141  0.74171935    -0.23600
C1869       C  0.86588060  0.59678314  0.74506546     0.19400
C1870       C  0.86435780  0.61797059  0.72105165     0.24500
C1871       C  0.84954640  0.61092064  0.69325236    -0.23500
C1872       C  0.83538108  0.58263982  0.69069190     0.19400
F1873       F  0.82075763  0.57492340  0.66460128    -0.13500
F1874       F  0.82508761  0.53346458  0.70976333    -0.15800
F1875       F  0.87811948  0.64523568  0.72475701    -0.15900
F1876       F  0.87966720  0.60468145  0.77155811    -0.13500
C1877       C  0.71491938  0.56767269  0.78636102     0.24500
C1878       C  0.71825794  0.59932139  0.78760749    -0.23600
C1879       C  0.74661743  0.61115775  0.79601776     0.19400
C1880       C  0.77000361  0.59200209  0.80621604     0.24500
C1881       C  0.76575326  0.56030264  0.80797136    -0.23500
C1882       C  0.73824582  0.54833115  0.79662308     0.19400
F1883       F  0.73340706  0.51788708  0.79600292    -0.13500
F1884       F  0.68813570  0.55543455  0.77775403    -0.15800
F1885       F  0.79656404  0.60478175  0.81491021    -0.15900
F1886       F  0.75076601  0.64173380  0.79678720    -0.13500
C1887       C  0.74419033  0.43290895  0.83015734     0.24500
C1888       C  0.77309114  0.41943727  0.83170641    -0.23600
C1889       C  0.77556772  0.38762790  0.82856204     0.19400
C1890       C  0.74953234  0.36977568  0.82355631     0.24500
C1891       C  0.72065424  0.38358009  0.82058042    -0.23500
C1892       C  0.71843163  0.41538952  0.82472600     0.19400
F1893       F  0.69115939  0.42985766  0.82373003    -0.13500
F1894       F  0.74104184  0.46357310  0.83248246    -0.15800
F1895       F  0.75275043  0.33921893  0.82039051    -0.15900
F1896       F  0.80333161  0.37408883  0.82851149    -0.13500
C1897       C  0.73158343  0.39309024  0.01563140     0.24500
C1898       C  0.70427401  0.40601370  0.02604555    -0.23600
C1899       C  0.70560270  0.43175962  0.04510496     0.19400
C1900       C  0.73296485  0.44634889  0.05030367     0.24500
C1901       C  0.75893927  0.43691169  0.03471361    -0.23500
C1902       C  0.75894227  0.40838497  0.02028275     0.19400
F1903       F  0.78433964  0.39806304  0.00618449    -0.13500
F1904       F  0.73155094  0.36706350  0.99906043    -0.15800
F1905       F  0.73287552  0.47322579  0.06550836    -0.15900
F1906       F  0.68028752  0.44376706  0.05782321    -0.13500
C1907       C  0.73985097  0.57150056  0.05510511     0.24500
C1908       C  0.75746550  0.58374764  0.03148655    -0.23600
C1909       C  0.75263959  0.61425283  0.02261401     0.19400
C1910       C  0.72752499  0.63040181  0.03383262     0.24500
C1911       C  0.70702911  0.61570846  0.05314136    -0.23500
C1912       C  0.71427701  0.58693170  0.06502765     0.19400
F1913       F  0.69535944  0.57280778  0.08474541    -0.13500
F1914       F  0.74520712  0.54295282  0.06594902    -0.15800
F1915       F  0.72165357  0.65902521  0.02359551    -0.15900
F1916       F  0.77013430  0.62727564  0.00092676    -0.13500
C1917       C  0.75633843  0.60831996  0.91003439     0.24500
C1918       C  0.75998395  0.57709018  0.90448743    -0.23600
C1919       C  0.73916076  0.56197303  0.88592856     0.19400
C1920       C  0.71249582  0.57657281  0.87710816     0.24500
C1921       C  0.70669902  0.60671009  0.88636330    -0.23500
C1922       C  0.72969998  0.62321817  0.90088592     0.19400
F1923       F  0.72531844  0.65281134  0.90860779    -0.13500
F1924       F  0.77662025  0.62323305  0.92776636    -0.15800
F1925       F  0.69172219  0.56068920  0.86082316    -0.15900
F1926       F  0.74273893  0.53184039  0.87996991    -0.13500
C1927       C  0.71061113  0.44567329  0.93206717     0.24500
C1928       C  0.74143742  0.43693880  0.93188078    -0.23600
C1929       C  0.74926315  0.40602830  0.92905935     0.19400
C1930       C  0.72680562  0.38464610  0.92404231     0.24500
C1931       C  0.69632249  0.39389057  0.92182181    -0.23500
C1932       C  0.68820393  0.42418043  0.92739391     0.19400
F1933       F  0.65878485  0.43344242  0.92598612    -0.13500
F1934       F  0.70198698  0.47495567  0.93712875    -0.15800
F1935       F  0.73487405  0.35505372  0.91984765    -0.15900
F1936       F  0.77862484  0.39656172  0.93052330    -0.13500
C1937       C  0.57042303  0.01714466  0.24332228     0.24500
C1938       C  0.57741378  0.02067761  0.21211222    -0.23600
C1939       C  0.60312167  0.03751378  0.20400215     0.19400
C1940       C  0.62021303  0.05205280  0.22641319     0.24500
C1941       C  0.61193201  0.04997352  0.25729140    -0.23500
C1942       C  0.58752142  0.03158265  0.26556357     0.19400
F1943       F  0.57907800  0.02873812  0.29514466    -0.13500
F1944       F  0.54646035  0.00037111  0.25264900    -0.15800
F1945       F  0.64487339  0.06818499  0.21786432    -0.15900
F1946       F  0.61183456  0.03995679  0.17448173    -0.13500
C1947       C  0.40226394  0.06100151  0.22089013     0.24500
C1948       C  0.41304361  0.06329392  0.25093567    -0.23600
C1949       C  0.44360753  0.05714597  0.25757344     0.19400
C1950       C  0.46319956  0.04871998  0.23437542     0.24500
C1951       C  0.45220599  0.04541026  0.20456818    -0.23500
C1952       C  0.42174721  0.05194357  0.19780201     0.19400
F1953       F  0.41023758  0.04675945  0.16955058    -0.13500
F1954       F  0.37255486  0.06612894  0.21420570    -0.15800
F1955       F  0.49260493  0.04215346  0.24118219    -0.15900
F1956       F  0.45455168  0.05941280  0.28642514    -0.13500
C1957       C  0.42614472  0.94580103  0.24876076     0.24500
C1958       C  0.39465582  0.94942019  0.24810499    -0.23600
C1959       C  0.37965863  0.95506298  0.22033726     0.19400
C1960       C  0.39604167  0.95607244  0.19328610     0.24500
C1961       C  0.42730166  0.95007450  0.19371281    -0.23500
C1962       C  0.44231441  0.94536971  0.22174388     0.19400
F1963       F  0.47281376  0.94105248  0.22319192    -0.13500
F1964       F  0.44098825  0.94019498  0.27535573    -0.15800
F1965       F  0.38138441  0.96207953  0.16664490    -0.15900
F1966       F  0.34900737  0.95804541  0.21938774    -0.13500
C1967       C  0.60275063  0.94571302  0.19415043     0.24500
C1968       C  0.57453772  0.93103668  0.19080737    -0.23600
C1969       C  0.56117744  0.91791145  0.21669703     0.19400
C1970       C  0.57450632  0.92088017  0.24523660     0.24500
C1971       C  0.60160227  0.93712100  0.24890572    -0.23500
C1972       C  0.61607349  0.94879809  0.22301285     0.19400
F1973       F  0.64243655  0.96428459  0.22577762    -0.13500
F1974       F  0.61644973  0.95901073  0.16995780    -0.15800
F1975       F  0.56090561  0.90724488  0.26929568    -0.15900
F1976       F  0.53437260  0.90305450  0.21474138    -0.13500
C1977       C  0.60679547  0.73722889  0.13994133     0.24500
C1978       C  0.59338792  0.70985105  0.14983369    -0.23600
C1979       C  0.56144456  0.70849356  0.14961422     0.19400
C1980       C  0.54372606  0.73242262  0.13781660     0.24500
C1981       C  0.55700300  0.75919891  0.12631691    -0.23500
C1982       C  0.58891322  0.76150335  0.12839074     0.19400
F1983       F  0.60302991  0.78729698  0.11937563    -0.13500
F1984       F  0.63739462  0.74020295  0.14032386    -0.15800
F1985       F  0.51327683  0.72876926  0.13720344    -0.15900
F1986       F  0.54695387  0.68334869  0.15980503    -0.13500
C1987       C  0.38667597  0.77133147  0.10227741     0.24500
C1988       C  0.41683576  0.77106799  0.11299702    -0.23600
C1989       C  0.42706652  0.74484552  0.12873758     0.19400
C1990       C  0.40852676  0.71956571  0.13303694     0.24500
C1991       C  0.37852626  0.71916422  0.12190603    -0.23500
C1992       C  0.36772748  0.74570591  0.10666096     0.19400
F1993       F  0.33902232  0.74675698  0.09545842    -0.13500
F1994       F  0.37525583  0.79658371  0.08840687    -0.15800
F1995       F  0.42049123  0.69513293  0.14798709    -0.15900
F1996       F  0.45557575  0.74358520  0.14034855    -0.13500
C1997       C  0.39638691  0.85943570  0.19062992     0.24500
C1998       C  0.42821243  0.86133307  0.19337470    -0.23600
C1999       C  0.44123449  0.85865511  0.22260613     0.19400
C2000       C  0.42352782  0.85203384  0.24784464     0.24500
C2001       C  0.39180941  0.84913882  0.24527687    -0.23500
C2002       C  0.37834810  0.85371684  0.21638445     0.19400
F2003       F  0.34781384  0.85220212  0.21289573    -0.13500
F2004       F  0.38272890  0.86204844  0.16296121    -0.15800
F2005       F  0.43787765  0.84899776  0.27507397    -0.15900
F2006       F  0.47159011  0.86153147  0.22695500    -0.13500
C2007       C  0.56280359  0.83577580  0.21781488     0.24500
C2008       C  0.57094082  0.84884169  0.18950603    -0.23600
C2009       C  0.60065886  0.85919673  0.18578629     0.19400
C2010       C  0.62126874  0.85778434  0.21024774     0.24500
C2011       C  0.61257900  0.84585810  0.23892792    -0.23500
C2012       C  0.58338511  0.83408776  0.24201179     0.19400
F2013       F  0.57376024  0.82325992  0.26926462    -0.13500
F2014       F  0.53422076  0.82564289  0.22264393    -0.15800
F2015       F  0.64945427  0.86929036  0.20628099    -0.15900
F2016       F  0.60971080  0.87083577  0.15867308    -0.13500
C2017       C  0.60368467  0.13726826  0.19319513     0.24500
C2018       C  0.57296606  0.14651168  0.19406988    -0.23600
C2019       C  0.56302918  0.16233742  0.22023822     0.19400
C2020       C  0.58270472  0.16845476  0.24457070     0.24500
C2021       C  0.61335565  0.15905922  0.24401672    -0.23500
C2022       C  0.62355982  0.14342644  0.21777123     0.19400
F2023       F  0.65267556  0.13337549  0.21605648    -0.13500
F2024       F  0.61452299  0.12188243  0.16873558    -0.15800
F2025       F  0.57121788  0.18337989  0.26903802    -0.15900
F2026       F  0.53411667  0.17287432  0.22229042    -0.13500
C2027       C  0.44320428  0.15245425  0.21656061     0.24500
C2028       C  0.43126497  0.14007643  0.18958773    -0.23600
C2029       C  0.39981085  0.13532811  0.18778450     0.19400
C2030       C  0.38079925  0.14351231  0.21238064     0.24500
C2031       C  0.39289309  0.15751449  0.23874016    -0.23500
C2032       C  0.42448011  0.16194216  0.24010582     0.19400
F2033       F  0.43779441  0.17572187  0.26430291    -0.13500
F2034       F  0.47341822  0.15751052  0.21928612    -0.15800
F2035       F  0.35060781  0.13827013  0.21013867    -0.15900
F2036       F  0.38735467  0.12427566  0.16181016    -0.13500
C2037       C  0.44243804  0.25653444  0.12532827     0.24500
C2038       C  0.43370844  0.22957571  0.11023583    -0.23600
C2039       C  0.40336950  0.22774458  0.10004265     0.19400
C2040       C  0.38286012  0.25234043  0.10392406     0.24500
C2041       C  0.39196336  0.27962105  0.11821763    -0.23500
C2042       C  0.42205818  0.28092766  0.12923813     0.19400
F2043       F  0.43229528  0.30621834  0.14354606    -0.13500
F2044       F  0.47083967  0.25943846  0.13696895    -0.15800
F2045       F  0.35424868  0.24960271  0.09286375    -0.15900
F2046       F  0.39349712  0.20225133  0.08588332    -0.13500
C2047       C  0.57057966  0.25040899  0.12582633     0.24500
C2048       C  0.57530150  0.22630668  0.10507907    -0.23600
C2049       C  0.59962346  0.22817277  0.08459915     0.19400
C2050       C  0.61870900  0.25366834  0.08498582     0.24500
C2051       C  0.61344428  0.27780434  0.10555901    -0.23500
C2052       C  0.58949117  0.27542127  0.12626144     0.19400
F2053       F  0.58364895  0.29788867  0.14665975    -0.13500
F2054       F  0.54700368  0.25034689  0.14564448    -0.15800
F2055       F  0.64159882  0.25518894  0.06455173    -0.15900
F2056       F  0.60498901  0.20547389  0.06437443    -0.13500
C2057       C  0.40907442  0.23981153  0.00455748     0.24500
C2058       C  0.43562413  0.24829458  0.98951308    -0.23600
C2059       C  0.44160520  0.27935399  0.98448788     0.19400
C2060       C  0.42114255  0.30155834  0.99402257     0.24500
C2061       C  0.39470753  0.29306190  0.00924789    -0.23500
C2062       C  0.38864935  0.26200025  0.01410585     0.19400
F2063       F  0.36274688  0.25306257  0.02798187    -0.13500
F2064       F  0.40216179  0.21006134  0.00884201    -0.15800
F2065       F  0.42786276  0.33132170  0.98951654    -0.15900
F2066       F  0.46738164  0.28825035  0.97036533    -0.13500
C2067       C  0.55583797  0.28755886  0.96676507     0.24500
C2068       C  0.56366107  0.25688523  0.97281190    -0.23600
C2069       C  0.59221308  0.24977687  0.98516336     0.19400
C2070       C  0.61191870  0.27286088  0.99267708     0.24500
C2071       C  0.60264846  0.30342728  0.99001527    -0.23500
C2072       C  0.57524207  0.31074344  0.97550840     0.19400
F2073       F  0.56635355  0.34015747  0.97159182    -0.13500
F2074       F  0.52910256  0.29527020  0.95325335    -0.15800
F2075       F  0.63973329  0.26532255  0.00389161    -0.15900
F2076       F  0.60138823  0.22051639  0.98963783    -0.13500
C2077       C  0.55564087  0.25271010  0.87879703     0.24500
C2078       C  0.56941383  0.22670309  0.89176074    -0.23600
C2079       C  0.59805290  0.22980554  0.90593129     0.19400
C2080       C  0.61153230  0.25843879  0.90857768     0.24500
C2081       C  0.59667622  0.28456173  0.89727087    -0.23500
C2082       C  0.56890012  0.28115978  0.88174603     0.19400
F2083       F  0.55441227  0.30537670  0.86891491    -0.13500
F2084       F  0.52840889  0.25105701  0.86439574    -0.15800
F2085       F  0.63858556  0.26070462  0.92322850    -0.15900
F2086       F  0.61231015  0.20546218  0.91884412    -0.13500
C2087       C  0.43748727  0.24987215  0.88168991     0.24500
C2088       C  0.42247776  0.22637453  0.89730386    -0.23600
C2089       C  0.39523716  0.23331992  0.91255609     0.19400
C2090       C  0.38430829  0.26325928  0.91364408     0.24500
C2091       C  0.40022077  0.28683977  0.89932705    -0.23500
C2092       C  0.42654794  0.27965295  0.88275549     0.19400
F2093       F  0.44156978  0.30133434  0.86689848    -0.13500
F2094       F  0.46364552  0.24444792  0.86637653    -0.15800
F2095       F  0.35850394  0.26927038  0.92932866    -0.15900
F2096       F  0.37987090  0.21136362  0.92767244    -0.13500
C2097       C  0.45051371  0.15629018  0.69768407     0.24500
C2098       C  0.43947537  0.14204159  0.72422595    -0.23600
C2099       C  0.40834892  0.13522827  0.72553728     0.19400
C2100       C  0.38898121  0.14215228  0.70095995     0.24500
C2101       C  0.40020661  0.15592973  0.67426043    -0.23500
C2102       C  0.43128483  0.16305606  0.67318476     0.19400
F2103       F  0.44357451  0.17610589  0.64807669    -0.13500
F2104       F  0.47996931  0.16456889  0.69539571    -0.15800
F2105       F  0.35930795  0.13458539  0.70313968    -0.15900
F2106       F  0.39647603  0.12178742  0.75061739    -0.13500
C2107       C  0.58390487  0.14650581  0.68109621     0.24500
C2108       C  0.61583437  0.14654539  0.68323373    -0.23600
C2109       C  0.62912285  0.13768682  0.71134802     0.19400
C2110       C  0.61087564  0.13083759  0.73686307     0.24500
C2111       C  0.57905619  0.13149094  0.73442945    -0.23500
C2112       C  0.56605488  0.13848176  0.70597783     0.19400
F2113       F  0.53546889  0.13920582  0.70271246    -0.13500
F2114       F  0.56951202  0.15430109  0.65479523    -0.15800
F2115       F  0.62424428  0.12511411  0.76420482    -0.15900
F2116       F  0.65972439  0.13627628  0.71437393    -0.13500
C2117       C  0.56373818  0.24832341  0.79978308     0.24500
C2118       C  0.57318723  0.22036554  0.81309391    -0.23600
C2119       C  0.60397877  0.21684841  0.82101332     0.19400
C2120       C  0.62407047  0.24118317  0.81783422     0.24500
C2121       C  0.61408036  0.26960725  0.80639425    -0.23500
C2122       C  0.58401734  0.27241884  0.79621717     0.19400
F2123       F  0.57344524  0.29935931  0.78515608    -0.13500
F2124       F  0.53454812  0.25291412  0.79083017    -0.15800
F2125       F  0.65310697  0.23755799  0.82769259    -0.15900
F2126       F  0.61455567  0.19027336  0.83297703    -0.13500
C2127       C  0.41343719  0.26951763  0.79411540     0.24500
C2128       C  0.38583154  0.26790113  0.80972420    -0.23600
C2129       C  0.37886977  0.24053712  0.82521907     0.19400
C2130       C  0.39949713  0.21593193  0.82590565     0.24500
C2131       C  0.42776099  0.21824079  0.81153518    -0.23500
C2132       C  0.43417086  0.24526242  0.79523358     0.19400
F2133       F  0.46124718  0.24883773  0.78112292    -0.13500
F2134       F  0.42149928  0.29546024  0.77950922    -0.15800
F2135       F  0.39188580  0.19003898  0.84083483    -0.15900
F2136       F  0.35235705  0.23791639  0.84055439    -0.13500
C2137       C  0.61537748  0.73776305  0.03343073     0.24500
C2138       C  0.60101503  0.71655369  0.05208046    -0.23600
C2139       C  0.57095081  0.72063333  0.06077596     0.19400
C2140       C  0.55438003  0.74475007  0.04917590     0.24500
C2141       C  0.56723165  0.76379051  0.02692107    -0.23500
C2142       C  0.59840038  0.76141724  0.02054019     0.19400
F2143       F  0.61183965  0.78040658  0.00035893    -0.13500
F2144       F  0.64529707  0.73481156  0.02689103    -0.15800
F2145       F  0.52496285  0.74773363  0.05777157    -0.15900
F2146       F  0.55726457  0.70045152  0.07958250    -0.13500
C2147       C  0.37934003  0.74037953  0.01424221     0.24500
C2148       C  0.39197055  0.71439462  0.02806570    -0.23600
C2149       C  0.41849420  0.71697633  0.04556165     0.19400
C2150       C  0.43407607  0.74413243  0.04623328     0.24500
C2151       C  0.42399140  0.76860780  0.02840442    -0.23500
C2152       C  0.39527902  0.76760017  0.01457625     0.19400
F2153       F  0.38483739  0.79153520  0.99781460    -0.13500
F2154       F  0.35167115  0.73929369  0.00061047    -0.15800
F2155       F  0.46138183  0.74520439  0.06055807    -0.15900
F2156       F  0.42881755  0.69351853  0.06291817    -0.13500
C2157       C  0.40184971  0.74946033  0.90122081     0.24500
C2158       C  0.42547694  0.74409145  0.92200129    -0.23600
C2159       C  0.43007353  0.71467622  0.93399552     0.19400
C2160       C  0.41289735  0.69045978  0.92363451     0.24500
C2161       C  0.39061591  0.69524199  0.90130070    -0.23500
C2162       C  0.38435332  0.72505091  0.89093325     0.19400
F2163       F  0.36276489  0.73021414  0.86940341    -0.13500
F2164       F  0.39698059  0.77774236  0.88960367    -0.15800
F2165       F  0.41855962  0.66213224  0.93485809    -0.15900
F2166       F  0.45175809  0.70926843  0.95546536    -0.13500
C2167       C  0.54774754  0.72932463  0.89125396     0.24500
C2168       C  0.56058800  0.75699261  0.90011550    -0.23600
C2169       C  0.59178167  0.76165263  0.89704817     0.19400
C2170       C  0.61031539  0.73768684  0.88749073     0.24500
C2171       C  0.59765613  0.70897294  0.88200820    -0.23500
C2172       C  0.56623916  0.70522105  0.88290950     0.19400
F2173       F  0.55337462  0.67825790  0.87578277    -0.13500
F2174       F  0.51742451  0.72481221  0.89368396    -0.15800
F2175       F  0.64067202  0.74192453  0.88520557    -0.15900
F2176       F  0.60449694  0.78813901  0.90620826    -0.13500
C2177       C  0.44194091  0.73314747  0.78894374     0.24500
C2178       C  0.43232056  0.76121933  0.80155546    -0.23600
C2179       C  0.40101048  0.76584773  0.80612926     0.19400
C2180       C  0.38038003  0.74254705  0.80023912     0.24500
C2181       C  0.39034833  0.71388688  0.78984176    -0.23500
C2182       C  0.42114754  0.70993752  0.78297682     0.19400
F2183       F  0.43160033  0.68280130  0.77261074    -0.13500
F2184       F  0.47161230  0.72767830  0.78280073    -0.15800
F2185       F  0.35058872  0.74740237  0.80641227    -0.15900
F2186       F  0.39018061  0.79269033  0.81698358    -0.13500
C2187       C  0.57532159  0.70772089  0.79827540     0.24500
C2188       C  0.60660435  0.70933646  0.79177975    -0.23600
C2189       C  0.62143541  0.73707456  0.79795560     0.19400
C2190       C  0.60510940  0.76261230  0.80874582     0.24500
C2191       C  0.57380888  0.76083809  0.81444453    -0.23500
C2192       C  0.55941046  0.73289411  0.80965595     0.19400
F2193       F  0.52915673  0.73045050  0.81451363    -0.13500
F2194       F  0.55979728  0.68161651  0.79390302    -0.15800
F2195       F  0.61952763  0.78957070  0.81195705    -0.15900
F2196       F  0.65167682  0.73964820  0.79317714    -0.13500
C2197       C  0.60433811  0.85241402  0.73419638     0.24500
C2198       C  0.57306465  0.84634628  0.73184048    -0.23600
C2199       C  0.56196879  0.83502577  0.70389841     0.19400
C2200       C  0.58084337  0.83128481  0.67889602     0.24500
C2201       C  0.61167883  0.83907555  0.68039201    -0.23500
C2202       C  0.62341593  0.84906503  0.70866542     0.19400
F2203       F  0.65313350  0.85634591  0.71150580    -0.13500
F2204       F  0.61644733  0.86190724  0.76097939    -0.15800
F2205       F  0.56822230  0.82079532  0.65271872    -0.15900
F2206       F  0.53255260  0.82686594  0.70044315    -0.13500
C2207       C  0.44333406  0.85292410  0.70250573     0.24500
C2208       C  0.43032050  0.85585020  0.73141550    -0.23600
C2209       C  0.39857329  0.85522642  0.73397226     0.19400
C2210       C  0.38024058  0.85119403  0.70788243     0.24500
C2211       C  0.39349314  0.84716767  0.67890337    -0.23500
C2212       C  0.42540122  0.84862310  0.67673867     0.19400
F2213       F  0.43971155  0.84604318  0.64955790    -0.13500
F2214       F  0.47394119  0.85308097  0.69935054    -0.15800
F2215       F  0.34968625  0.85041021  0.71112892    -0.15900
F2216       F  0.38546909  0.85663504  0.76184498    -0.13500
C2217       C  0.43132637  0.02805512  0.65490547     0.24500
C2218       C  0.40716836  0.04732662  0.66253536    -0.23600
C2219       C  0.39829777  0.05014915  0.69316176     0.19400
C2220       C  0.41397874  0.03457250  0.71595790     0.24500
C2221       C  0.43876208  0.01576988  0.70849112    -0.23500
C2222       C  0.44705758  0.01247643  0.67759837     0.19400
F2223       F  0.47074582  0.99457073  0.66904342    -0.13500
F2224       F  0.44065720  0.02525217  0.62559872    -0.15800
F2225       F  0.40496863  0.03828170  0.74526474    -0.15900
F2226       F  0.37435218  0.06800038  0.70113977    -0.13500
C2227       C  0.56787538  0.04563881  0.66681084     0.24500
C2228       C  0.59780355  0.05365328  0.67336438    -0.23600
C2229       C  0.60783901  0.05489648  0.70386921     0.19400
C2230       C  0.58849173  0.04702025  0.72741375     0.24500
C2231       C  0.55896946  0.03784741  0.72071116    -0.23500
C2232       C  0.54837959  0.03840572  0.69044538     0.19400
F2233       F  0.51961671  0.02994905  0.68373214    -0.13500
F2234       F  0.55748460  0.04490858  0.63765945    -0.15800
F2235       F  0.59948682  0.04550554  0.75633277    -0.15900
F2236       F  0.63682985  0.06252704  0.71079731    -0.13500
C2237       C  0.56518113  0.93192811  0.70658174     0.24500
C2238       C  0.58138025  0.94299954  0.73193277    -0.23600
C2239       C  0.60943758  0.95721124  0.72722277     0.19400
C2240       C  0.62153357  0.95900388  0.69795101     0.24500
C2241       C  0.60538158  0.94742083  0.67302780    -0.23500
C2242       C  0.57665811  0.93506242  0.67743691     0.19400
F2243       F  0.56120175  0.92263714  0.65380636    -0.13500
F2244       F  0.53798645  0.91816167  0.70973419    -0.15800
F2245       F  0.65010993  0.96956222  0.69417998    -0.15900
F2246       F  0.62548024  0.96855747  0.75101588    -0.13500
C2247       C  0.44912811  0.92943189  0.70305857     0.24500
C2248       C  0.43608745  0.93162411  0.73230794    -0.23600
C2249       C  0.40528138  0.93978677  0.73466193     0.19400
C2250       C  0.38802190  0.94510445  0.70838639     0.24500
C2251       C  0.40137485  0.94304887  0.67942836    -0.23500
C2252       C  0.43225099  0.93637106  0.67714929     0.19400
F2253       F  0.44567976  0.93413471  0.64952325    -0.13500
F2254       F  0.47864574  0.92156225  0.69930126    -0.15800
F2255       F  0.35771673  0.95008478  0.71098094    -0.15900
F2256       F  0.39163437  0.94171650  0.76224928    -0.13500
loop_ 
_geom_bond_atom_site_label_1 
_geom_bond_atom_site_label_2 
_geom_bond_distance 
_geom_bond_site_symmetry_2 
_ccdc_geom_bond_type 
O1          Cr19   1.981       .  S
O1            C9   1.271       .  A
O2          Cr19   2.005       .  S
O2            C3   1.245       .  A
C3            O4   1.236       .  A
C3         C2238   1.470       .  S
O4          Cr20   1.947       .  S
O5          Cr20   1.945       .  S
O5            C6   1.241       .  A
C6            O7   1.250       .  A
C6         C2248   1.480       .  S
O7          Cr21   1.992       .  S
O8          Cr21   2.015       .  S
O8            C9   1.284       .  A
C9           C31   1.495       .  S
O10         Cr19   1.988   1_545  S
O10          C18   1.253       .  A
O11         Cr19   1.977   1_545  S
O11          C12   1.275       .  A
C12          O13   1.273   1_545  A
C12        C2231   1.449       .  S
O13         Cr20   1.983       .  S
O14         Cr20   1.962       .  S
O14          C15   1.261       .  A
C15          O16   1.266   1_565  A
C15        C2221   1.471   1_565  S
O16         Cr21   1.978   1_545  S
O17         Cr21   1.976   1_545  S
O17          C18   1.244       .  A
C18          C84   1.488       .  S
Cr19         O22   1.814       .  S
Cr20         O22   1.741       .  S
Cr21         O22   1.790       .  S
O23         Cr41   2.032       .  S
O23          C31   1.271       .  A
O24         Cr41   2.009       .  S
O24          C25   1.263       .  A
C25          O26   1.250       .  A
C25        C2208   1.476       .  S
O26         Cr42   1.964       .  S
O27         Cr42   1.954       .  S
O27          C28   1.257       .  A
C28          O29   1.275       .  A
C28        C2198   1.496       .  S
O29         Cr43   2.055       .  S
O30         Cr43   1.991       .  S
O30          C31   1.271       .  A
O32         Cr41   1.972       .  S
O32          C40   1.264       .  A
O33         Cr41   2.039       .  S
O33          C34   1.277       .  A
C34          O35   1.261       .  A
C34        C2178   1.496       .  S
O35         Cr42   1.962       .  S
O36         Cr42   1.972       .  S
O36          C37   1.252       .  A
C37          O38   1.270       .  A
C37        C2191   1.482       .  S
O38         Cr43   2.031       .  S
O39         Cr43   2.022       .  S
O39          C40   1.267       .  A
C40          C53   1.479       .  S
Cr41         O44   1.788       .  S
Cr42         O44   1.771       .  S
Cr43         O44   1.794       .  S
O45         Cr63   1.970       .  S
O45          C53   1.254       .  A
O46         Cr63   2.036       .  S
O46          C47   1.274       .  A
C47          O48   1.259       .  A
C47        C2158   1.463       .  S
O48         Cr64   1.950       .  S
O49         Cr64   1.961       .  S
O49          C50   1.255       .  A
C50          O51   1.255       .  A
C50        C2168   1.443       .  S
O51         Cr65   1.977       .  S
O52         Cr65   1.988       .  S
O52          C53   1.266       .  A
O54         Cr63   2.005       .  S
O54          C62   1.276   1_556  A
O55         Cr63   1.968   1_554  S
O55          C56   1.250       .  A
C56          O57   1.252   1_554  A
C56        C2151   1.433       .  S
O57         Cr64   1.946       .  S
O58         Cr64   1.931   1_554  S
O58          C59   1.253       .  A
C59          O60   1.268   1_554  A
C59        C2141   1.458       .  S
O60         Cr65   2.012       .  S
O61         Cr65   1.959       .  S
O61          C62   1.252   1_556  A
C62         C150   1.494       .  S
Cr63         O66   1.780       .  S
Cr64         O66   1.728       .  S
Cr65         O66   1.792       .  S
O67         Cr85   2.013       .  S
O67          C75   1.269       .  A
O68         Cr85   2.024       .  S
O68          C69   1.268       .  A
C69          O70   1.252       .  A
C69        C2131   1.494       .  S
O70         Cr86   1.971       .  S
O71         Cr86   1.955       .  S
O71          C72   1.258       .  A
C72          O73   1.278       .  A
C72        C2118   1.496       .  S
O73         Cr87   2.051       .  S
O74         Cr87   2.005       .  S
O74          C75   1.271       .  A
C75          C97   1.492       .  S
O76         Cr85   1.986       .  S
O76          C84   1.266       .  A
O77         Cr85   2.034       .  S
O77          C78   1.273       .  A
C78          O79   1.260       .  A
C78        C2098   1.493       .  S
O79         Cr86   1.962       .  S
O80         Cr86   1.971       .  S
O80          C81   1.251       .  A
C81          O82   1.269       .  A
C81        C2111   1.486       .  S
O82         Cr87   2.033       .  S
O83         Cr87   2.026       .  S
O83          C84   1.269       .  A
Cr85         O88   1.787       .  S
Cr86         O88   1.774       .  S
Cr87         O88   1.796       .  S
O89        Cr107   2.006       .  S
O89          C97   1.282       .  A
O90        Cr107   1.997       .  S
O90          C91   1.249       .  A
C91          O92   1.246       .  A
C91        C2078   1.487       .  S
O92        Cr108   1.949       .  S
O93        Cr108   1.947       .  S
O93          C94   1.237       .  A
C94          O95   1.245       .  A
C94        C2088   1.482       .  S
O95        Cr109   2.008       .  S
O96        Cr109   1.991       .  S
O96          C97   1.277       .  A
O98        Cr107   1.988       .  S
O98         C106   1.249   1_556  A
O99        Cr107   1.971       .  S
O99         C100   1.269       .  A
C100        O101   1.262       .  A
C100       C2068   1.459       .  S
O101       Cr108   1.961       .  S
O102       Cr108   1.991       .  S
O102        C103   1.274       .  A
C103        O104   1.278       .  A
C103       C2058   1.461       .  S
O104       Cr109   1.976       .  S
O105       Cr109   2.002       .  S
O105        C106   1.254   1_556  A
C106        C128   1.496       .  S
Cr107       O110   1.784       .  S
Cr108       O110   1.752       .  S
Cr109       O110   1.804       .  S
O111       Cr129   2.042       .  S
O111        C119   1.275       .  A
O112       Cr129   2.035       .  S
O112        C113   1.268       .  A
C113        O114   1.249       .  A
C113       C2028   1.485       .  S
O114       Cr130   1.952       .  S
O115       Cr130   1.973       .  S
O115        C116   1.263       .  A
C116        O117   1.279       .  A
C116       C2018   1.510       .  S
O117       Cr131   2.065       .  S
O118       Cr131   1.992       .  S
O118        C119   1.267       .  A
C119        C172   1.499       .  S
O120       Cr129   2.005       .  S
O120        C128   1.268       .  A
O121       Cr129   2.063       .  S
O121        C122   1.281       .  A
C122        O123   1.265       .  A
C122       C2038   1.512       .  S
O123       Cr130   1.973       .  S
O124       Cr130   1.959       .  S
O124        C125   1.249       .  A
C125        O126   1.262       .  A
C125       C2048   1.484       .  S
O126       Cr131   2.016       .  S
O127       Cr131   2.022       .  S
O127        C128   1.270       .  A
Cr129       O132   1.793       .  S
Cr130       O132   1.770       .  S
Cr131       O132   1.791       .  S
O133       Cr151   2.030       .  S
O133        C141   1.270       .  A
O134       Cr151   2.027       .  S
O134        C135   1.267       .  A
C135        O136   1.245       .  A
C135       C2008   1.486       .  S
O136       Cr152   1.952       .  S
O137       Cr152   1.952       .  S
O137        C138   1.257       .  A
C138        O139   1.274       .  A
C138       C1998   1.489       .  S
O139       Cr153   2.044       .  S
O140       Cr153   2.005       .  S
O140        C141   1.274       .  A
C141        C163   1.501       .  S
O142       Cr151   1.995       .  S
O142        C150   1.273       .  A
O143       Cr151   2.059       .  S
O143        C144   1.280       .  A
C144        O145   1.265       .  A
C144       C1981   1.509       .  S
O145       Cr152   1.965       .  S
O146       Cr152   1.975       .  S
O146        C147   1.251       .  A
C147        O148   1.274       .  A
C147       C1988   1.506       .  S
O148       Cr153   2.055       .  S
O149       Cr153   2.019       .  S
O149        C150   1.265       .  A
Cr151       O154   1.793       .  S
Cr152       O154   1.772       .  S
Cr153       O154   1.798       .  S
O155       Cr173   1.973       .  S
O155        C163   1.272       .  A
O156       Cr173   1.990       .  S
O156        C157   1.242       .  A
C157        O158   1.237       .  A
C157       C1961   1.458       .  S
O158       Cr174   1.950       .  S
O159       Cr174   1.945       .  S
O159        C160   1.242       .  A
C160        O161   1.250       .  A
C160       C1968   1.483       .  S
O161       Cr175   2.003       .  S
O162       Cr175   2.041       .  S
O162        C163   1.293       .  A
O164       Cr173   1.983   1_545  S
O164        C172   1.249       .  A
O165       Cr173   1.966   1_545  S
O165        C166   1.276       .  A
C166        O167   1.278       .  A
C166       C1951   1.446       .  S
O167       Cr174   1.996   1_545  S
O168       Cr174   1.972       .  S
O168        C169   1.264   1_565  A
C169        O170   1.270       .  A
C169       C1938   1.479       .  S
O170       Cr175   1.991   1_545  S
O171       Cr175   1.996   1_545  S
O171        C172   1.249       .  A
Cr173       O176   1.807       .  S
Cr174       O176   1.737       .  S
Cr175       O176   1.780       .  S
O177       Cr195   1.992       .  S
O177        C185   1.267   1_556  A
O178       Cr195   1.983   1_554  S
O178        C179   1.257       .  A
C179        O180   1.257       .  A
C179       C1901   1.452       .  S
O180       Cr196   1.962   1_554  S
O181       Cr196   1.939   1_554  S
O181        C182   1.255       .  A
C182        O183   1.270   1_554  A
C182       C1908   1.472       .  S
O183       Cr197   2.030       .  S
O184       Cr197   1.980   1_554  S
O184        C185   1.256       .  A
C185        C251   1.489       .  S
O186       Cr195   1.964       .  S
O186        C194   1.255       .  A
O187       Cr195   1.996       .  S
O187        C188   1.265       .  A
C188        O189   1.259       .  A
C188       C1928   1.461       .  S
O189       Cr196   1.956       .  S
O190       Cr196   1.975       .  S
O190        C191   1.258       .  A
C191        O192   1.254       .  A
C191       C1918   1.449       .  S
O192       Cr197   1.977       .  S
O193       Cr197   2.019       .  S
O193        C194   1.273       .  A
C194        C216   1.486       .  S
Cr195       O198   1.789       .  S
Cr196       O198   1.741       .  S
Cr197       O198   1.786       .  S
O199       Cr217   2.023       .  S
O199        C207   1.271       .  A
O200       Cr217   2.025       .  S
O200        C201   1.269       .  A
C201        O202   1.251       .  A
C201       C1868   1.492       .  S
O202       Cr218   1.966       .  S
O203       Cr218   1.944       .  S
O203        C204   1.253       .  A
C204        O205   1.275       .  A
C204       C1858   1.488       .  S
O205       Cr219   2.048       .  S
O206       Cr219   2.010       .  S
O206        C207   1.271       .  A
C207        C229   1.501       .  S
O208       Cr217   2.002       .  S
O208        C216   1.268       .  A
O209       Cr217   2.035       .  S
O209        C210   1.275       .  A
C210        O211   1.258       .  A
C210       C1881   1.491       .  S
O211       Cr218   1.954       .  S
O212       Cr218   1.982       .  S
O212        C213   1.253       .  A
C213        O214   1.266       .  A
C213       C1888   1.483       .  S
O214       Cr219   2.024       .  S
O215       Cr219   2.010       .  S
O215        C216   1.268       .  A
Cr217       O220   1.791       .  S
Cr218       O220   1.777       .  S
Cr219       O220   1.793       .  S
O221       Cr239   2.018       .  S
O221        C229   1.285       .  A
O222       Cr239   1.998       .  S
O222        C223   1.248       .  A
C223        O224   1.244       .  A
C223       C1838   1.481       .  S
O224       Cr240   1.949       .  S
O225       Cr240   1.956       .  S
O225        C226   1.240       .  A
C226        O227   1.243       .  A
C226       C1851   1.476       .  S
O227       Cr241   1.999       .  S
O228       Cr241   1.993       .  S
O228        C229   1.276       .  A
O230       Cr239   1.985   1_455  S
O230        C238   1.248       .  A
O231       Cr239   1.981   1_455  S
O231        C232   1.268       .  A
C232        O233   1.266   1_455  A
C232       C1828   1.477       .  S
O233       Cr240   1.976       .  S
O234       Cr240   1.991       .  S
O234        C235   1.275   1_655  A
C235        O236   1.281       .  A
C235       C1818   1.470       .  S
O236       Cr241   1.984   1_455  S
O237       Cr241   2.002   1_455  S
O237        C238   1.253       .  A
C238        C317   1.499       .  S
Cr239       O242   1.788       .  S
Cr240       O242   1.744       .  S
Cr241       O242   1.804       .  S
O243       Cr261   1.980       .  S
O243        C251   1.267       .  A
O244       Cr261   2.053       .  S
O244        C245   1.281       .  A
C245        O246   1.263       .  A
C245       C1791   1.506       .  S
O246       Cr262   1.970       .  S
O247       Cr262   1.963       .  S
O247        C248   1.251       .  A
C248        O249   1.270       .  A
C248       C1781   1.474       .  S
O249       Cr263   2.020       .  S
O250       Cr263   2.032       .  S
O250        C251   1.269       .  A
O252       Cr261   2.038       .  S
O252        C260   1.271       .  A
O253       Cr261   2.005       .  S
O253        C254   1.263       .  A
C254        O255   1.246       .  A
C254       C1801   1.467       .  S
O255       Cr262   1.945       .  S
O256       Cr262   1.952       .  S
O256        C257   1.254       .  A
C257        O258   1.273       .  A
C257       C1808   1.481       .  S
O258       Cr263   2.049       .  S
O259       Cr263   1.985       .  S
O259        C260   1.268       .  A
C260        C282   1.491       .  S
Cr261       O264   1.779       .  S
Cr262       O264   1.771       .  S
Cr263       O264   1.786       .  S
O265       Cr283   1.987       .  S
O265        C273   1.270       .  A
O266       Cr283   1.972       .  S
O266        C267   1.249       .  A
C267        O268   1.242       .  A
C267       C1738   1.474       .  S
O268       Cr284   1.957       .  S
O269       Cr284   1.947       .  S
O269        C270   1.232       .  A
C270        O271   1.251       .  A
C270       C1751   1.481       .  S
O271       Cr285   2.036   1_455  S
O272       Cr285   2.005   1_455  S
O272        C273   1.274       .  A
C273        C304   1.504       .  S
O274       Cr283   1.959   1_655  S
O274        C282   1.246       .  A
O275       Cr283   1.961   1_655  S
O275        C276   1.263       .  A
C276        O277   1.265   1_655  A
C276       C1768   1.471       .  S
O277       Cr284   1.980       .  S
O278       Cr284   2.002   1_655  S
O278        C279   1.273       .  A
C279        O280   1.273       .  A
C279       C1758   1.458       .  S
O280       Cr285   1.986       .  S
O281       Cr285   2.025       .  S
O281        C282   1.265       .  A
Cr283       O286   1.793       .  S
Cr284       O286   1.751       .  S
Cr285       O286   1.818   1_655  S
O287       Cr305   1.996       .  S
O287        C295   1.268       .  A
O288       Cr305   2.083       .  S
O288        C289   1.285       .  A
C289        O290   1.256       .  A
C289       C1728   1.511       .  S
O290       Cr306   1.954       .  S
O291       Cr306   1.947       .  S
O291        C292   1.247       .  A
C292        O293   1.265       .  A
C292       C1721   1.466       .  S
O293       Cr307   2.010       .  S
O294       Cr307   1.994       .  S
O294        C295   1.264       .  A
C295        C339   1.476       .  S
O296       Cr305   2.060       .  S
O296        C304   1.281       .  A
O297       Cr305   2.006       .  S
O297        C298   1.264       .  A
C298        O299   1.248       .  A
C298       C1698   1.459       .  S
O299       Cr306   1.954       .  S
O300       Cr306   1.971       .  S
O300        C301   1.263       .  A
C301        O302   1.272       .  A
C301       C1708   1.492       .  S
O302       Cr307   2.023       .  S
O303       Cr307   1.976       .  S
O303        C304   1.263       .  A
Cr305       O308   1.793       .  S
Cr306       O308   1.777       .  S
Cr307       O308   1.781       .  S
O309       Cr327   1.997       .  S
O309        C317   1.268       .  A
O310       Cr327   2.027       .  S
O310        C311   1.274       .  A
C311        O312   1.260       .  A
C311       C1671   1.491       .  S
O312       Cr328   1.961       .  S
O313       Cr328   1.986       .  S
O313        C314   1.255       .  A
C314        O315   1.267       .  A
C314       C1661   1.486       .  S
O315       Cr329   2.025       .  S
O316       Cr329   2.032       .  S
O316        C317   1.271       .  A
O318       Cr327   2.009       .  S
O318        C326   1.267       .  A
O319       Cr327   2.026       .  S
O319        C320   1.266       .  A
C320        O321   1.254       .  A
C320       C1678   1.496       .  S
O321       Cr328   1.979       .  S
O322       Cr328   1.946       .  S
O322        C323   1.255       .  A
C323        O324   1.277       .  A
C323       C1688   1.495       .  S
O324       Cr329   2.060       .  S
O325       Cr329   2.007       .  S
O325        C326   1.270       .  A
C326        C348   1.488       .  S
Cr327       O330   1.785       .  S
Cr328       O330   1.771       .  S
Cr329       O330   1.797       .  S
O331       Cr349   1.969       .  S
O331        C339   1.274   1_556  A
O332       Cr349   1.998       .  S
O332        C333   1.244   1_556  A
C333        O334   1.240       .  A
C333       C1618   1.475       .  S
O334       Cr350   1.958       .  S
O335       Cr350   1.954       .  S
O335        C336   1.249       .  A
C336        O337   1.253       .  A
C336       C1628   1.488       .  S
O337       Cr351   1.998   1_554  S
O338       Cr351   2.009       .  S
O338        C339   1.283   1_556  A
O340       Cr349   1.984       .  S
O340        C348   1.249       .  A
O341       Cr349   1.966       .  S
O341        C342   1.277       .  A
C342        O343   1.279       .  A
C342       C1648   1.463       .  S
O343       Cr350   2.003   1_556  S
O344       Cr350   1.973   1_556  S
O344        C345   1.263       .  A
C345        O346   1.266       .  A
C345       C1638   1.461       .  S
O346       Cr351   1.967       .  S
O347       Cr351   1.996       .  S
O347        C348   1.249       .  A
Cr349       O352   1.802       .  S
Cr350       O352   1.750   1_554  S
Cr351       O352   1.777       .  S
O353       Cr371   1.965       .  S
O353        C361   1.269       .  A
O354       Cr371   1.989       .  S
O354        C355   1.243       .  A
C355        O356   1.241       .  A
C355       C1578   1.467       .  S
O356       Cr372   1.950       .  S
O357       Cr372   1.952       .  S
O357        C358   1.248       .  A
C358        O359   1.252       .  A
C358       C1588   1.491       .  S
O359       Cr373   2.002       .  S
O360       Cr373   2.016       .  S
O360        C361   1.286       .  A
C361        C427   1.483       .  S
O362       Cr371   1.981   1_655  S
O362        C370   1.246       .  A
O363       Cr371   1.976   1_655  S
O363        C364   1.277       .  A
C364        O365   1.272   1_655  A
C364       C1611   1.449       .  S
O365       Cr372   1.977       .  S
O366       Cr372   1.961       .  S
O366        C367   1.259   1_455  A
C367        O368   1.266       .  A
C367       C1601   1.467       .  S
O368       Cr373   1.972   1_655  S
O369       Cr373   1.991   1_655  S
O369        C370   1.248       .  A
C370        C392   1.486       .  S
Cr371       O374   1.816       .  S
Cr372       O374   1.749       .  S
Cr373       O374   1.777       .  S
O375       Cr393   2.034       .  S
O375        C383   1.268       .  A
O376       Cr393   2.010       .  S
O376        C377   1.267       .  A
C377        O378   1.249       .  A
C377       C1548   1.465       .  S
O378       Cr394   1.949       .  S
O379       Cr394   1.965       .  S
O379        C380   1.260       .  A
C380        O381   1.280       .  A
C380       C1541   1.507       .  S
O381       Cr395   2.064       .  S
O382       Cr395   1.985       .  S
O382        C383   1.266       .  A
C383        C405   1.490       .  S
O384       Cr393   1.976       .  S
O384        C392   1.263       .  A
O385       Cr393   2.044       .  S
O385        C386   1.274       .  A
C386        O387   1.264       .  A
C386       C1558   1.501       .  S
O387       Cr394   1.976       .  S
O388       Cr394   1.957       .  S
O388        C389   1.250       .  A
C389        O390   1.263       .  A
C389       C1568   1.467       .  S
O390       Cr395   2.012       .  S
O391       Cr395   2.038       .  S
O391        C392   1.274       .  A
Cr393       O396   1.788       .  S
Cr394       O396   1.769       .  S
Cr395       O396   1.786       .  S
O397       Cr415   1.970   1_565  S
O397        C405   1.254       .  A
O398       Cr415   1.973   1_565  S
O398        C399   1.265       .  A
C399        O400   1.260       .  A
C399       C1518   1.449       .  S
O400       Cr416   1.952   1_565  S
O401       Cr416   1.986   1_565  S
O401        C402   1.261       .  A
C402        O403   1.259       .  A
C402       C1531   1.455       .  S
O403       Cr417   1.987       .  S
O404       Cr417   2.014       .  S
O404        C405   1.271       .  A
O406       Cr415   1.991       .  S
O406        C414   1.268       .  A
O407       Cr415   1.990       .  S
O407        C408   1.258       .  A
C408        O409   1.252       .  A
C408       C1508   1.460       .  S
O409       Cr416   1.954       .  S
O410       Cr416   1.946       .  S
O410        C411   1.247       .  A
C411        O412   1.268       .  A
C411       C1498   1.475       .  S
O412       Cr417   2.039   1_545  S
O413       Cr417   1.975   1_545  S
O413        C414   1.260       .  A
C414        C480   1.483       .  S
Cr415       O418   1.781       .  S
Cr416       O418   1.739       .  S
Cr417       O418   1.795   1_565  S
O419       Cr437   1.998       .  S
O419        C427   1.267       .  A
O420       Cr437   2.030       .  S
O420        C421   1.274       .  A
C421        O422   1.260       .  A
C421       C1468   1.490       .  S
O422       Cr438   1.960       .  S
O423       Cr438   1.970       .  S
O423        C424   1.249       .  A
C424        O425   1.269       .  A
C424       C1458   1.487       .  S
O425       Cr439   2.037       .  S
O426       Cr439   2.003       .  S
O426        C427   1.268       .  A
O428       Cr437   2.005       .  S
O428        C436   1.267       .  A
O429       Cr437   2.018       .  S
O429        C430   1.267       .  A
C430        O431   1.249       .  A
C430       C1478   1.483       .  S
O431       Cr438   1.965       .  S
O432       Cr438   1.950       .  S
O432        C433   1.257       .  A
C433        O434   1.275       .  A
C433       C1488   1.487       .  S
O434       Cr439   2.036       .  S
O435       Cr439   2.023       .  S
O435        C436   1.272       .  A
C436        C449   1.500       .  S
Cr437       O440   1.788       .  S
Cr438       O440   1.784       .  S
Cr439       O440   1.791       .  S
O441       Cr459   1.972   1_565  S
O441        C449   1.259       .  A
O442       Cr459   2.015   1_565  S
O442        C443   1.264       .  A
C443        O444   1.255       .  A
C443       C1438   1.472       .  S
O444       Cr460   1.958       .  S
O445       Cr460   1.961       .  S
O445        C446   1.255       .  A
C446        O447   1.248       .  A
C446       C1448   1.453       .  S
O447       Cr461   1.965       .  S
O448       Cr461   2.006       .  S
O448        C449   1.276       .  A
O450       Cr459   2.004       .  S
O450        C458   1.265       .  A
O451       Cr459   1.996       .  S
O451        C452   1.264       .  A
C452        O453   1.260       .  A
C452       C1428   1.456       .  S
O453       Cr460   1.982   1_545  S
O454       Cr460   1.956   1_545  S
O454        C455   1.262       .  A
C455        O456   1.272       .  A
C455       C1418   1.476       .  S
O456       Cr461   2.017   1_545  S
O457       Cr461   1.978   1_545  S
O457        C458   1.254       .  A
C458        C493   1.484       .  S
Cr459       O462   1.797   1_545  S
Cr460       O462   1.739       .  S
Cr461       O462   1.782       .  S
O463       Cr481   1.981       .  S
O463        C471   1.266       .  A
O464       Cr481   2.021       .  S
O464        C465   1.269       .  A
C465        O466   1.261       .  A
C465       C1408   1.487       .  S
O466       Cr482   1.971       .  S
O467       Cr482   1.942       .  S
O467        C468   1.245       .  A
C468        O469   1.266       .  A
C468       C1398   1.468       .  S
O469       Cr483   2.024       .  S
O470       Cr483   2.021       .  S
O470        C471   1.267       .  A
C471        C515   1.479       .  S
O472       Cr481   1.997       .  S
O472        C480   1.264       .  A
O473       Cr481   2.022       .  S
O473        C474   1.269       .  A
C474        O475   1.248       .  A
C474       C1378   1.480       .  S
O475       Cr482   1.953       .  S
O476       Cr482   1.964       .  S
O476        C477   1.262       .  A
C477        O478   1.277       .  A
C477       C1388   1.500       .  S
O478       Cr483   2.046       .  S
O479       Cr483   2.009       .  S
O479        C480   1.271       .  A
Cr481       O484   1.780       .  S
Cr482       O484   1.770       .  S
Cr483       O484   1.791       .  S
O485       Cr503   2.023       .  S
O485        C493   1.269       .  A
O486       Cr503   2.026       .  S
O486        C487   1.269       .  A
C487        O488   1.246       .  A
C487       C1368   1.477       .  S
O488       Cr504   1.949       .  S
O489       Cr504   1.972       .  S
O489        C490   1.264       .  A
C490        O491   1.271       .  A
C490       C1358   1.484       .  S
O491       Cr505   2.015       .  S
O492       Cr505   1.985       .  S
O492        C493   1.266       .  A
O494       Cr503   2.012       .  S
O494        C502   1.273       .  A
O495       Cr503   2.064       .  S
O495        C496   1.278       .  A
C496        O497   1.259       .  A
C496       C1338   1.503       .  S
O497       Cr504   1.960       .  S
O498       Cr504   1.937       .  S
O498        C499   1.244       .  A
C499        O500   1.265       .  A
C499       C1351   1.467       .  S
O500       Cr505   2.015       .  S
O501       Cr505   1.996       .  S
O501        C502   1.263       .  A
C502        C524   1.488       .  S
Cr503       O506   1.787       .  S
Cr504       O506   1.774       .  S
Cr505       O506   1.779       .  S
O507       Cr525   2.000   1_655  S
O507        C515   1.256       .  A
O508       Cr525   1.986   1_655  S
O508        C509   1.278       .  A
C509        O510   1.277       .  A
C509       C1321   1.451       .  S
O510       Cr526   1.987   1_655  S
O511       Cr526   1.987       .  S
O511        C512   1.265   1_455  A
C512        O513   1.260       .  A
C512       C1328   1.475       .  S
O513       Cr527   1.961   1_655  S
O514       Cr527   1.962   1_655  S
O514        C515   1.243       .  A
O516       Cr525   1.996       .  S
O516        C524   1.276       .  A
O517       Cr525   2.020       .  S
O517        C518   1.246       .  A
C518        O519   1.239       .  A
C518       C1311   1.485       .  S
O519       Cr526   1.956       .  S
O520       Cr526   1.948       .  S
O520        C521   1.243       .  A
C521        O522   1.250       .  A
C521       C1298   1.475       .  S
O522       Cr527   1.990       .  S
O523       Cr527   1.992       .  S
O523        C524   1.276       .  A
Cr525       O528   1.809       .  S
Cr526       O528   1.745       .  S
Cr527       O528   1.795       .  S
O529       Cr547   1.991       .  S
O529        C537   1.262       .  A
O530       Cr547   1.942       .  S
O530        C531   1.250       .  A
C531        O532   1.262       .  A
C531       C1331   1.461       .  S
O532       Cr548   2.004       .  S
O533       Cr548   1.957       .  S
O533        C534   1.262       .  A
C534        O535   1.277       .  A
C534       C1278   1.483       .  S
O535       Cr549   2.038       .  S
O536       Cr549   1.967       .  S
O536        C537   1.256       .  A
C537       C1411   1.490       .  S
O538       Cr547   1.928       .  S
O538        C546   1.249       .  A
O539       Cr547   1.999       .  S
O539        C540   1.267       .  A
C540        O541   1.259       .  A
C540       C1841   1.478       .  S
O541       Cr548   1.957       .  S
O542       Cr548   2.004       .  S
O542        C543   1.262       .  A
C543        O544   1.259       .  A
C543       C1288   1.480       .  S
O544       Cr549   1.987       .  S
O545       Cr549   2.033       .  S
O545        C546   1.275       .  A
C546       C1861   1.480       .  S
Cr547       O550   1.783       .  S
Cr548       O550   1.773       .  S
Cr549       O550   1.768       .  S
O551       Cr569   1.900       .  S
O551        C559   1.244       .  A
O552       Cr569   1.992       .  S
O552        C553   1.263       .  A
C553        O554   1.257       .  A
C553       C1528   1.477       .  S
O554       Cr570   1.966       .  S
O555       Cr570   2.003       .  S
O555        C556   1.264       .  A
C556        O557   1.258       .  A
C556       C1258   1.487       .  S
O557       Cr571   1.985       .  S
O558       Cr571   2.042       .  S
O558        C559   1.278       .  A
C559       C1551   1.473       .  S
O560       Cr569   1.990       .  S
O560        C568   1.259       .  A
O561       Cr569   1.911       .  S
O561        C562   1.245       .  A
C562        O563   1.267       .  A
C562       C2241   1.442       .  S
O563       Cr570   2.023       .  S
O564       Cr570   1.960       .  S
O564        C565   1.262       .  A
C565        O566   1.278       .  A
C565       C1268   1.498       .  S
O566       Cr571   2.047       .  S
O567       Cr571   1.975       .  S
O567        C568   1.258       .  A
C568       C2201   1.495       .  S
Cr569       O572   1.789       .  S
Cr570       O572   1.774       .  S
Cr571       O572   1.770       .  S
O573       Cr591   1.987       .  S
O573        C581   1.262       .  A
O574       Cr591   1.911       .  S
O574        C575   1.246       .  A
C575        O576   1.272       .  A
C575       C2251   1.452       .  S
O576       Cr592   2.032       .  S
O577       Cr592   1.957       .  S
O577        C578   1.259       .  A
C578        O579   1.275       .  A
C578       C1271   1.496       .  S
O579       Cr593   2.044       .  S
O580       Cr593   1.974       .  S
O580        C581   1.255       .  A
C581       C2211   1.496       .  S
O582       Cr591   1.926       .  S
O582        C590   1.249       .  A
O583       Cr591   1.986       .  S
O583        C584   1.258       .  A
C584        O585   1.256       .  A
C584       C1441   1.466       .  S
O585       Cr592   1.964       .  S
O586       Cr592   2.028       .  S
O586        C587   1.271       .  A
C587        O588   1.260       .  A
C587       C1248   1.500       .  S
O588       Cr593   1.972       .  S
O589       Cr593   2.048       .  S
O589        C590   1.278       .  A
C590       C1481   1.489       .  S
Cr591       O594   1.793       .  S
Cr592       O594   1.777       .  S
Cr593       O594   1.780       .  S
O595       Cr613   1.933       .  S
O595        C603   1.249       .  A
O596       Cr613   2.000       .  S
O596        C597   1.267       .  A
C597        O598   1.260       .  A
C597       C1848   1.479       .  S
O598       Cr614   1.963       .  S
O599       Cr614   2.006       .  S
O599        C600   1.263       .  A
C600        O601   1.258       .  A
C600       C1291   1.482       .  S
O601       Cr615   1.986       .  S
O602       Cr615   2.039       .  S
O602        C603   1.277       .  A
C603       C1871   1.490       .  S
O604       Cr613   2.001       .  S
O604        C612   1.264       .  A
O605       Cr613   1.926       .  S
O605        C606   1.247       .  A
C606        O607   1.263       .  A
C606       C1598   1.457       .  S
O607       Cr614   2.011       .  S
O608       Cr614   1.962       .  S
O608        C609   1.263       .  A
C609        O610   1.277       .  A
C609       C1238   1.484       .  S
O610       Cr615   2.038       .  S
O611       Cr615   1.984       .  S
O611        C612   1.259       .  A
C612       C1561   1.505       .  S
Cr613       O616   1.778       .  S
Cr614       O616   1.774       .  S
Cr615       O616   1.763       .  S
O617       Cr635   1.979       .  S
O617        C625   1.259       .  A
O618       Cr635   1.923       .  S
O618        C619   1.246       .  A
C619        O620   1.265       .  A
C619       C1608   1.451       .  S
O620       Cr636   2.006       .  S
O621       Cr636   1.971       .  S
O621        C622   1.263       .  A
C622        O623   1.275       .  A
C622       C1241   1.488       .  S
O623       Cr637   2.034       .  S
O624       Cr637   1.981       .  S
O624        C625   1.257       .  A
C625       C1571   1.491       .  S
O626       Cr635   1.910       .  S
O626        C634   1.247       .  A
O627       Cr635   1.993       .  S
O627        C628   1.264       .  A
C628        O629   1.259       .  A
C628       C1761   1.482       .  S
O629       Cr636   1.971       .  S
O630       Cr636   1.994       .  S
O630        C631   1.263       .  A
C631        O632   1.259       .  A
C631       C1228   1.478       .  S
O632       Cr637   1.982       .  S
O633       Cr637   2.030       .  S
O633        C634   1.275       .  A
C634       C1798   1.467       .  S
Cr635       O638   1.785       .  S
Cr636       O638   1.763       .  S
Cr637       O638   1.776       .  S
O639       Cr657   1.982       .  S
O639        C647   1.258       .  A
O640       Cr657   1.945       .  S
O640        C641   1.251       .  A
C641        O642   1.264       .  A
C641       C1651   1.464       .  S
O642       Cr658   2.000       .  S
O643       Cr658   1.952       .  S
O643        C644   1.258       .  A
C644        O645   1.275       .  A
C644       C1211   1.484       .  S
O645       Cr659   2.040       .  S
O646       Cr659   1.985       .  S
O646        C647   1.256       .  A
C647       C1691   1.496       .  S
O648       Cr657   1.932       .  S
O648        C656   1.253       .  A
O649       Cr657   2.004       .  S
O649        C650   1.265       .  A
C650        O651   1.261       .  A
C650       C2161   1.467       .  S
O651       Cr658   1.964       .  S
O652       Cr658   1.996       .  S
O652        C653   1.263       .  A
C653        O654   1.257       .  A
C653       C1218   1.480       .  S
O654       Cr659   1.973       .  S
O655       Cr659   2.038       .  S
O655        C656   1.278       .  A
C656       C2181   1.481       .  S
Cr657       O660   1.783       .  S
Cr658       O660   1.761       .  S
Cr659       O660   1.780       .  S
O661       Cr679   1.973       .  S
O661        C669   1.259       .  A
O662       Cr679   1.925       .  S
O662        C663   1.245       .  A
C663        O664   1.268       .  A
C663       C2171   1.448       .  S
O664       Cr680   2.012       .  S
O665       Cr680   1.950       .  S
O665        C666   1.258       .  A
C666        O667   1.269       .  A
C666       C1221   1.471       .  S
O667       Cr681   2.019       .  S
O668       Cr681   2.005       .  S
O668        C669   1.259       .  A
C669       C2188   1.506       .  S
O670       Cr679   1.922       .  S
O670        C678   1.250       .  A
O671       Cr679   1.984       .  S
O671        C672   1.259       .  A
C672        O673   1.256       .  A
C672       C1921   1.465       .  S
O673       Cr680   1.960       .  S
O674       Cr680   2.001       .  S
O674        C675   1.264       .  A
C675        O676   1.264       .  A
C675       C1198   1.497       .  S
O676       Cr681   1.997       .  S
O677       Cr681   2.037       .  S
O677        C678   1.276       .  A
C678       C1878   1.473       .  S
Cr679       O682   1.794       .  S
Cr680       O682   1.764       .  S
Cr681       O682   1.784       .  S
O683       Cr701   1.923       .  S
O683        C691   1.247       .  A
O684       Cr701   1.999       .  S
O684        C685   1.265       .  A
C685        O686   1.260       .  A
C685       C1971   1.474       .  S
O686       Cr702   1.966       .  S
O687       Cr702   1.993       .  S
O687        C688   1.261       .  A
C688        O689   1.262       .  A
C688       C1191   1.489       .  S
O689       Cr703   1.999       .  S
O690       Cr703   2.040       .  S
O690        C691   1.278       .  A
C691       C2011   1.482       .  S
O692       Cr701   2.002       .  S
O692        C700   1.264       .  A
O693       Cr701   1.915       .  S
O693        C694   1.247       .  A
C694        O695   1.261       .  A
C694       C1521   1.444       .  S
O695       Cr702   2.001       .  S
O696       Cr702   1.968       .  S
O696        C697   1.264       .  A
C697        O698   1.276       .  A
C697       C1261   1.490       .  S
O698       Cr703   2.033       .  S
O699       Cr703   1.991       .  S
O699        C700   1.261       .  A
C700       C1538   1.505       .  S
Cr701       O704   1.785       .  S
Cr702       O704   1.775       .  S
Cr703       O704   1.766       .  S
O705       Cr723   1.995       .  S
O705        C713   1.263       .  A
O706       Cr723   1.927       .  S
O706        C707   1.249       .  A
C707        O708   1.264       .  A
C707       C1931   1.451       .  S
O708       Cr724   2.007       .  S
O709       Cr724   1.975       .  S
O709        C710   1.266       .  A
C710        O711   1.275       .  A
C710       C1201   1.491       .  S
O711       Cr725   2.032       .  S
O712       Cr725   1.989       .  S
O712        C713   1.260       .  A
C713       C1891   1.500       .  S
O714       Cr723   1.931       .  S
O714        C722   1.249       .  A
O715       Cr723   1.995       .  S
O715        C716   1.264       .  A
C716        O717   1.259       .  A
C716       C2081   1.481       .  S
O717       Cr724   1.971       .  S
O718       Cr724   1.988       .  S
O718        C719   1.261       .  A
C719        O720   1.260       .  A
C719       C1178   1.478       .  S
O720       Cr725   1.990       .  S
O721       Cr725   2.039       .  S
O721        C722   1.276       .  A
C722       C2121   1.482       .  S
Cr723       O726   1.787       .  S
Cr724       O726   1.772       .  S
Cr725       O726   1.773       .  S
O727       Cr745   1.947       .  S
O727        C735   1.252       .  A
O728       Cr745   1.998       .  S
O728        C729   1.266       .  A
C729        O730   1.263       .  A
C729       C1511   1.476       .  S
O730       Cr746   1.972       .  S
O731       Cr746   2.000       .  S
O731        C732   1.262       .  A
C732        O733   1.263       .  A
C732       C1158   1.491       .  S
O733       Cr747   1.997       .  S
O734       Cr747   2.029       .  S
O734        C735   1.273       .  A
C735       C1391   1.487       .  S
O736       Cr745   1.989       .  S
O736        C744   1.263       .  A
O737       Cr745   1.955       .  S
O737        C738   1.250       .  A
C738        O739   1.263       .  A
C738       C1941   1.470       .  S
O739       Cr746   2.006       .  S
O740       Cr746   1.985       .  S
O740        C741   1.269       .  A
C741        O742   1.271       .  A
C741       C1168   1.480       .  S
O742       Cr747   2.012       .  S
O743       Cr747   1.996       .  S
O743        C744   1.262       .  A
C744       C2021   1.510       .  S
Cr745       O748   1.785       .  S
Cr746       O748   1.769       .  S
Cr747       O748   1.772       .  S
O749       Cr767   1.921       .  S
O749        C757   1.248       .  A
O750       Cr767   1.987       .  S
O750        C751   1.261       .  A
C751        O752   1.257       .  A
C751       C1451   1.471       .  S
O752       Cr768   1.964       .  S
O753       Cr768   2.011       .  S
O753        C754   1.266       .  A
C754        O755   1.264       .  A
C754       C1251   1.498       .  S
O755       Cr769   1.985       .  S
O756       Cr769   2.038       .  S
O756        C757   1.275       .  A
C757       C1491   1.479       .  S
O758       Cr767   1.983       .  S
O758        C766   1.260       .  A
O759       Cr767   1.924       .  S
O759        C760   1.247       .  A
C760        O761   1.266       .  A
C760       C1958   1.448       .  S
O761       Cr768   2.017       .  S
O762       Cr768   1.963       .  S
O762        C763   1.262       .  A
C763        O764   1.273       .  A
C763       C1188   1.486       .  S
O764       Cr769   2.030       .  S
O765       Cr769   1.977       .  S
O765        C766   1.257       .  A
C766       C2001   1.493       .  S
Cr767       O770   1.793       .  S
Cr768       O770   1.779       .  S
Cr769       O770   1.779       .  S
O771       Cr789   1.927       .  S
O771        C779   1.250       .  A
O772       Cr789   1.996       .  S
O772        C773   1.265       .  A
C773        O774   1.258       .  A
C773       C1591   1.485       .  S
O774       Cr790   1.970       .  S
O775       Cr790   2.002       .  S
O775        C776   1.265       .  A
C776        O777   1.261       .  A
C776       C1141   1.480       .  S
O777       Cr791   1.981       .  S
O778       Cr791   2.035       .  S
O778        C779   1.275       .  A
C779       C1471   1.480       .  S
O780       Cr789   1.992       .  S
O780        C788   1.262       .  A
O781       Cr789   1.933       .  S
O781        C782   1.248       .  A
C782        O783   1.267       .  A
C782       C1821   1.468       .  S
O783       Cr790   2.010       .  S
O784       Cr790   1.968       .  S
O784        C785   1.261       .  A
C785        O786   1.271       .  A
C785       C1148   1.484       .  S
O786       Cr791   2.017       .  S
O787       Cr791   1.988       .  S
O787        C788   1.259       .  A
C788       C1658   1.503       .  S
Cr789       O792   1.789       .  S
Cr790       O792   1.776       .  S
Cr791       O792   1.772       .  S
O793       Cr811   1.909       .  S
O793        C801   1.245       .  A
O794       Cr811   1.997       .  S
O794        C795   1.267       .  A
C795        O796   1.260       .  A
C795       C1431   1.478       .  S
O796       Cr812   1.965       .  S
O797       Cr812   1.996       .  S
O797        C798   1.262       .  A
C798        O799   1.259       .  A
C798       C1118   1.483       .  S
O799       Cr813   1.979       .  S
O800       Cr813   2.043       .  S
O800        C801   1.278       .  A
C801       C1371   1.482       .  S
O802       Cr811   1.980       .  S
O802        C810   1.258       .  A
O803       Cr811   1.937       .  S
O803        C804   1.248       .  A
C804        O805   1.265       .  A
C804       C2218   1.460       .  S
O805       Cr812   2.011       .  S
O806       Cr812   1.957       .  S
O806        C807   1.264       .  A
C807        O808   1.275       .  A
C807       C1128   1.476       .  S
O808       Cr813   2.034       .  S
O809       Cr813   1.983       .  S
O809        C810   1.256       .  A
C810       C2101   1.493       .  S
Cr811       O814   1.776       .  S
Cr812       O814   1.765       .  S
Cr813       O814   1.769       .  S
O815       Cr833   1.989       .  S
O815        C823   1.259       .  A
O816       Cr833   1.929       .  S
O816        C817   1.249       .  A
C817        O818   1.264       .  A
C817       C1771   1.457       .  S
O818       Cr834   2.009       .  S
O819       Cr834   1.946       .  S
O819        C820   1.258       .  A
C820        O821   1.277       .  A
C820       C1231   1.482       .  S
O821       Cr835   2.042       .  S
O822       Cr835   1.974       .  S
O822        C823   1.259       .  A
C823       C1811   1.484       .  S
O824       Cr833   1.910       .  S
O824        C832   1.246       .  A
O825       Cr833   1.991       .  S
O825        C826   1.265       .  A
C826        O827   1.255       .  A
C826       C1318   1.480       .  S
O827       Cr834   1.957       .  S
O828       Cr834   2.000       .  S
O828        C829   1.263       .  A
C829        O830   1.259       .  A
C829       C1281   1.483       .  S
O830       Cr835   1.986       .  S
O831       Cr835   2.038       .  S
O831        C832   1.277       .  A
C832       C1401   1.465       .  S
Cr833       O836   1.779       .  S
Cr834       O836   1.773       .  S
Cr835       O836   1.765       .  S
O837       Cr855   1.937       .  S
O837        C845   1.253       .  A
O838       Cr855   1.989       .  S
O838        C839   1.258       .  A
C839        O840   1.259       .  A
C839       C1748   1.468       .  S
O840       Cr856   1.974       .  S
O841       Cr856   2.016       .  S
O841        C842   1.269       .  A
C842        O843   1.261       .  A
C842       C1108   1.494       .  S
O843       Cr857   1.980       .  S
O844       Cr857   2.035       .  S
O844        C845   1.275       .  A
C845       C1711   1.484       .  S
O846       Cr855   1.991       .  S
O846        C854   1.262       .  A
O847       Cr855   1.917       .  S
O847        C848   1.248       .  A
C848        O849   1.270       .  A
C848       C1581   1.448       .  S
O849       Cr856   2.027       .  S
O850       Cr856   1.964       .  S
O850        C851   1.261       .  A
C851        O852   1.269       .  A
C851       C1138   1.486       .  S
O852       Cr857   2.017       .  S
O853       Cr857   1.991       .  S
O853        C854   1.258       .  A
C854       C1461   1.505       .  S
Cr855       O858   1.789       .  S
Cr856       O858   1.771       .  S
Cr857       O858   1.778       .  S
O859       Cr877   1.928       .  S
O859        C867   1.250       .  A
O860       Cr877   2.002       .  S
O860        C861   1.262       .  A
C861        O862   1.250       .  A
C861       C1831   1.463       .  S
O862       Cr878   1.936       .  S
O863       Cr878   2.015       .  S
O863        C864   1.270       .  A
C864        O865   1.259       .  A
C864       C1151   1.481       .  S
O865       Cr879   1.964       .  S
O866       Cr879   2.037       .  S
O866        C867   1.275       .  A
C867       C1668   1.477       .  S
O868       Cr877   2.004       .  S
O868        C876   1.266       .  A
O869       Cr877   1.910       .  S
O869        C870   1.245       .  A
C870        O871   1.271       .  A
C870       C1301   1.451       .  S
O871       Cr878   2.024       .  S
O872       Cr878   1.930       .  S
O872        C873   1.249       .  A
C873        O874   1.270       .  A
C873       C1101   1.477       .  S
O874       Cr879   2.034       .  S
O875       Cr879   1.972       .  S
O875        C876   1.258       .  A
C876       C1341   1.500       .  S
Cr877       O880   1.791       .  S
Cr878       O880   1.769       .  S
Cr879       O880   1.779       .  S
O881       Cr899   1.983       .  S
O881        C889   1.260       .  A
O882       Cr899   1.918       .  S
O882        C883   1.246       .  A
C883        O884   1.269       .  A
C883       C2228   1.455       .  S
O884       Cr900   2.018       .  S
O885       Cr900   1.957       .  S
O885        C886   1.259       .  A
C886        O887   1.271       .  A
C886       C1131   1.477       .  S
O887       Cr901   2.030       .  S
O888       Cr901   1.994       .  S
O888        C889   1.259       .  A
C889       C2108   1.504       .  S
O890       Cr899   1.930       .  S
O890        C898   1.250       .  A
O891       Cr899   1.986       .  S
O891        C892   1.259       .  A
C892        O893   1.258       .  A
C892       C1501   1.468       .  S
O893       Cr900   1.968       .  S
O894       Cr900   2.014       .  S
O894        C895   1.269       .  A
C895        O896   1.263       .  A
C895       C1161   1.492       .  S
O896       Cr901   1.985       .  S
O897       Cr901   2.041       .  S
O897        C898   1.278       .  A
C898       C1381   1.481       .  S
Cr899       O902   1.788       .  S
Cr900       O902   1.771       .  S
Cr901       O902   1.776       .  S
O903       Cr921   1.945       .  S
O903        C911   1.251       .  A
O904       Cr921   1.995       .  S
O904        C905   1.265       .  A
C905        O906   1.262       .  A
C905       C2091   1.476       .  S
O906       Cr922   1.976       .  S
O907       Cr922   1.984       .  S
O907        C908   1.259       .  A
C908        O909   1.260       .  A
C908       C1181   1.476       .  S
O909       Cr923   1.994       .  S
O910       Cr923   2.033       .  S
O910        C911   1.276       .  A
C911       C2128   1.490       .  S
O912       Cr921   1.996       .  S
O912        C920   1.263       .  A
O913       Cr921   1.936       .  S
O913        C914   1.250       .  A
C914        O915   1.262       .  A
C914       C1641   1.452       .  S
O915       Cr922   2.004       .  S
O916       Cr922   1.971       .  S
O916        C917   1.267       .  A
C917        O918   1.274       .  A
C917       C1208   1.481       .  S
O918       Cr923   2.028       .  S
O919       Cr923   1.988       .  S
O919        C920   1.260       .  A
C920       C1681   1.507       .  S
Cr921       O924   1.779       .  S
Cr922       O924   1.769       .  S
Cr923       O924   1.768       .  S
O925       Cr943   1.929       .  S
O925        C933   1.251       .  A
O926       Cr943   2.002       .  S
O926        C927   1.263       .  A
C927        O928   1.260       .  A
C927       C1911   1.461       .  S
O928       Cr944   1.958       .  S
O929       Cr944   2.000       .  S
O929        C930   1.262       .  A
C930        O931   1.256       .  A
C930       C1078   1.482       .  S
O931       Cr945   1.971       .  S
O932       Cr945   2.050       .  S
O932        C933   1.280       .  A
C933       C1788   1.493       .  S
O934       Cr943   1.983       .  S
O934        C942   1.261       .  A
O935       Cr943   1.924       .  S
O935        C936   1.244       .  A
C936        O937   1.263       .  A
C936       C2138   1.432       .  S
O937       Cr944   2.006       .  S
O938       Cr944   1.963       .  S
O938        C939   1.263       .  A
C939        O940   1.277       .  A
C939       C1091   1.493       .  S
O940       Cr945   2.041       .  S
O941       Cr945   1.993       .  S
O941        C942   1.256       .  A
C942       C1978   1.508       .  S
Cr943       O946   1.789       .  S
Cr944       O946   1.766       .  S
Cr945       O946   1.778       .  S
O947       Cr965   1.995       .  S
O947        C955   1.265       .  A
O948       Cr965   1.889       .  S
O948        C949   1.238       .  A
C949        O950   1.270       .  A
C949       C2148   1.436       .  S
O950       Cr966   2.025       .  S
O951       Cr966   1.963       .  S
O951        C952   1.261       .  A
C952        O953   1.272       .  A
C952       C1088   1.493       .  S
O953       Cr967   2.028       .  S
O954       Cr967   1.992       .  S
O954        C955   1.260       .  A
C955       C1991   1.513       .  S
O956       Cr965   1.910       .  S
O956        C964   1.245       .  A
O957       Cr965   1.989       .  S
O957        C958   1.260       .  A
C958        O959   1.255       .  A
C958       C1621   1.474       .  S
O959       Cr966   1.969       .  S
O960       Cr966   2.012       .  S
O960        C961   1.268       .  A
C961        O962   1.263       .  A
C961       C1068   1.497       .  S
O962       Cr967   1.988       .  S
O963       Cr967   2.040       .  S
O963        C964   1.276       .  A
C964       C1718   1.472       .  S
Cr965       O968   1.797       .  S
Cr966       O968   1.776       .  S
Cr967       O968   1.774       .  S
O969       Cr987   1.992       .  S
O969        C977   1.261       .  A
O970       Cr987   1.917       .  S
O970        C971   1.247       .  A
C971        O972   1.264       .  A
C971       C2071   1.454   1_554  S
O972       Cr988   2.012       .  S
O973       Cr988   1.983       .  S
O973        C974   1.267       .  A
C974        O975   1.276       .  A
C974       C1058   1.495       .  S
O975       Cr989   2.036       .  S
O976       Cr989   1.962       .  S
O976        C977   1.257       .  A
C977       C2051   1.481       .  S
O978       Cr987   1.920       .  S
O978        C986   1.247       .  A
O979       Cr987   1.986       .  S
O979        C980   1.262       .  A
C980        O981   1.259       .  A
C980       C1898   1.478       .  S
O981       Cr988   1.974       .  S
O982       Cr988   1.999       .  S
O982        C983   1.263       .  A
C983        O984   1.258       .  A
C983       C1081   1.475       .  S
O984       Cr989   1.971       .  S
O985       Cr989   2.037       .  S
O985        C986   1.275       .  A
C986       C1778   1.475       .  S
Cr987       O990   1.781       .  S
Cr988       O990   1.780       .  S
Cr989       O990   1.762       .  S
O991      Cr1009   1.909       .  S
O991        C999   1.246       .  A
O992      Cr1009   1.995       .  S
O992        C993   1.262       .  A
C993        O994   1.256       .  A
C993       C1308   1.483       .  S
O994      Cr1010   1.970       .  S
O995      Cr1010   2.017       .  S
O995        C996   1.270       .  A
C996        O997   1.257       .  A
C996       C1098   1.484       .  S
O997      Cr1011   1.961       .  S
O998      Cr1011   2.032       .  S
O998        C999   1.275       .  A
C999       C1348   1.467       .  S
O1000     Cr1009   1.989       .  S
O1000      C1008   1.261       .  A
O1001     Cr1009   1.915       .  S
O1001      C1002   1.247       .  A
C1002      O1003   1.274       .  A
C1002      C1741   1.456       .  S
O1003     Cr1010   2.030       .  S
O1004     Cr1010   1.953       .  S
O1004      C1005   1.257       .  A
C1005      O1006   1.273       .  A
C1005      C1111   1.488       .  S
O1006     Cr1011   2.035       .  S
O1007     Cr1011   1.962       .  S
O1007      C1008   1.254       .  A
C1008      C1701   1.481       .  S
Cr1009     O1012   1.793       .  S
Cr1010     O1012   1.774       .  S
Cr1011     O1012   1.780       .  S
O1013     Cr1031   1.985       .  S
O1013      C1021   1.262       .  A
O1014     Cr1031   1.937       .  S
O1014      C1015   1.247       .  A
C1015      O1016   1.261       .  A
C1015      C1948   1.452       .  S
O1016     Cr1032   1.996       .  S
O1017     Cr1032   1.952       .  S
O1017      C1018   1.257       .  A
C1018      O1019   1.277       .  A
C1018      C1171   1.480       .  S
O1019     Cr1033   2.047       .  S
O1020     Cr1033   1.976       .  S
O1020      C1021   1.258       .  A
C1021      C2031   1.498       .  S
O1022     Cr1031   1.931       .  S
O1022      C1030   1.252       .  A
O1023     Cr1031   2.007       .  S
O1023      C1024   1.268       .  A
C1024      O1025   1.259       .  A
C1024      C1421   1.474       .  S
O1025     Cr1032   1.952       .  S
O1026     Cr1032   1.998       .  S
O1026      C1027   1.263       .  A
C1027      O1028   1.259       .  A
C1027      C1121   1.480       .  S
O1028     Cr1033   1.978       .  S
O1029     Cr1033   2.035       .  S
O1029      C1030   1.274       .  A
C1030      C1361   1.483       .  S
Cr1031     O1034   1.776       .  S
Cr1032     O1034   1.760       .  S
Cr1033     O1034   1.779       .  S
O1035     Cr1053   1.934       .  S
O1035      C1043   1.249       .  A
O1036     Cr1053   2.004       .  S
O1036      C1037   1.268       .  A
C1037      O1038   1.260       .  A
C1037      C1631   1.481       .  S
O1038     Cr1054   1.966       .  S
O1039     Cr1054   2.007       .  S
O1039      C1040   1.263       .  A
C1040      O1041   1.259       .  A
C1040      C1071   1.494       .  S
O1041     Cr1055   1.987       .  S
O1042     Cr1055   2.060       .  S
O1042      C1043   1.282       .  A
C1043      C1731   1.502       .  S
O1044     Cr1053   2.000       .  S
O1044      C1052   1.265       .  A
O1045     Cr1053   1.927       .  S
O1045      C1046   1.245       .  A
C1046      O1047   1.264       .  A
C1046      C2061   1.461       .  S
O1047     Cr1054   2.011       .  S
O1048     Cr1054   1.969       .  S
O1048      C1049   1.264       .  A
C1049      O1050   1.280       .  A
C1049      C1061   1.499       .  S
O1050     Cr1055   2.052       .  S
O1051     Cr1055   1.993       .  S
O1051      C1052   1.260       .  A
C1052      C2041   1.512       .  S
Cr1053     O1056   1.787       .  S
Cr1054     O1056   1.777       .  S
Cr1055     O1056   1.766       .  S
C1057      C1058   1.408       .  A
C1057      C1062   1.402       .  A
C1057      F1064   1.359       .  S
C1058      C1059   1.412       .  A
C1059      C1060   1.409       .  A
C1059      F1066   1.357       .  S
C1060      C1061   1.410       .  A
C1060      F1065   1.357       .  S
C1061      C1062   1.413       .  A
C1062      F1063   1.357       .  S
C1067      C1068   1.411       .  A
C1067      C1072   1.404       .  A
C1067      F1074   1.357       .  S
C1068      C1069   1.411       .  A
C1069      C1070   1.400       .  A
C1069      F1076   1.358       .  S
C1070      C1071   1.410       .  A
C1070      F1075   1.358       .  S
C1071      C1072   1.410       .  A
C1072      F1073   1.357       .  S
C1077      C1078   1.409       .  A
C1077      C1082   1.395       .  A
C1077      F1084   1.358       .  S
C1078      C1079   1.410       .  A
C1079      C1080   1.398       .  A
C1079      F1086   1.357       .  S
C1080      C1081   1.405       .  A
C1080      F1085   1.358       .  S
C1081      C1082   1.406       .  A
C1082      F1083   1.358       .  S
C1087      C1088   1.411       .  A
C1087      C1092   1.408       .  A
C1087      F1094   1.357       .  S
C1088      C1089   1.410       .  A
C1089      C1090   1.396       .  A
C1089      F1096   1.358       .  S
C1090      C1091   1.410       .  A
C1090      F1095   1.358       .  S
C1091      C1092   1.409       .  A
C1092      F1093   1.357       .  S
C1097      C1098   1.415       .  A
C1097      C1102   1.402       .  A
C1097      F1104   1.357       .  S
C1098      C1099   1.405       .  A
C1099      C1100   1.394       .  A
C1099      F1106   1.358       .  S
C1100      C1101   1.411       .  A
C1100      F1105   1.359       .  S
C1101      C1102   1.401       .  A
C1102      F1103   1.357       .  S
C1107      C1108   1.413       .  A
C1107      C1112   1.405       .  A
C1107      F1114   1.357       .  S
C1108      C1109   1.409       .  A
C1109      C1110   1.399       .  A
C1109      F1116   1.358       .  S
C1110      C1111   1.410       .  A
C1110      F1115   1.359       .  S
C1111      C1112   1.405       .  A
C1112      F1113   1.357       .  S
C1117      C1118   1.409       .  A
C1117      C1122   1.393       .  A
C1117      F1124   1.358       .  S
C1118      C1119   1.409       .  A
C1119      C1120   1.400       .  A
C1119      F1126   1.358       .  S
C1120      C1121   1.408       .  A
C1120      F1125   1.358       .  S
C1121      C1122   1.408       .  A
C1122      F1123   1.359       .  S
C1127      C1128   1.405       .  A
C1127      C1132   1.390       .  A
C1127      F1134   1.359       .  S
C1128      C1129   1.408       .  A
C1129      C1130   1.406       .  A
C1129      F1136   1.358       .  S
C1130      C1131   1.408       .  A
C1130      F1135   1.358       .  S
C1131      C1132   1.405       .  A
C1132      F1133   1.357       .  S
C1137      C1138   1.410       .  A
C1137      C1142   1.395       .  A
C1137      F1144   1.358       .  S
C1138      C1139   1.411       .  A
C1139      C1140   1.403       .  A
C1139      F1146   1.358       .  S
C1140      C1141   1.407       .  A
C1140      F1145   1.358       .  S
C1141      C1142   1.405       .  A
C1142      F1143   1.358       .  S
C1147      C1148   1.408       .  A
C1147      C1152   1.399       .  A
C1147      F1154   1.358       .  S
C1148      C1149   1.411       .  A
C1149      C1150   1.398       .  A
C1149      F1156   1.357       .  S
C1150      C1151   1.405       .  A
C1150      F1155   1.358       .  S
C1151      C1152   1.409       .  A
C1152      F1153   1.358       .  S
C1157      C1158   1.411       .  A
C1157      C1162   1.399       .  A
C1157      F1164   1.358       .  S
C1158      C1159   1.408       .  A
C1159      C1160   1.406       .  A
C1159      F1166   1.357       .  S
C1160      C1161   1.411       .  A
C1160      F1165   1.357       .  S
C1161      C1162   1.409       .  A
C1162      F1163   1.358       .  S
C1167      C1168   1.404       .  A
C1167      C1172   1.397       .  A
C1167      F1174   1.359       .  S
C1168      C1169   1.410       .  A
C1169      C1170   1.402       .  A
C1169      F1176   1.358       .  S
C1170      C1171   1.404       .  A
C1170      F1175   1.357       .  S
C1171      C1172   1.410       .  A
C1172      F1173   1.357       .  S
C1177      C1178   1.409       .  A
C1177      C1182   1.407       .  A
C1177      F1184   1.357       .  S
C1178      C1179   1.406       .  A
C1179      C1180   1.387       .  A
C1179      F1186   1.359       .  S
C1180      C1181   1.405       .  A
C1180      F1185   1.359       .  S
C1181      C1182   1.408       .  A
C1182      F1183   1.357       .  S
C1187      C1188   1.406       .  A
C1187      C1192   1.394       .  A
C1187      F1194   1.359       .  S
C1188      C1189   1.410       .  A
C1189      C1190   1.409       .  A
C1189      F1196   1.357       .  S
C1190      C1191   1.410       .  A
C1190      F1195   1.357       .  S
C1191      C1192   1.410       .  A
C1192      F1193   1.358       .  S
C1197      C1198   1.412       .  A
C1197      C1202   1.408       .  A
C1197      F1204   1.357       .  S
C1198      C1199   1.413       .  A
C1199      C1200   1.398       .  A
C1199      F1206   1.358       .  S
C1200      C1201   1.406       .  A
C1200      F1205   1.358       .  S
C1201      C1202   1.410       .  A
C1202      F1203   1.358       .  S
C1207      C1208   1.404       .  A
C1207      C1212   1.393       .  A
C1207      F1214   1.359       .  S
C1208      C1209   1.410       .  A
C1209      C1210   1.406       .  A
C1209      F1216   1.358       .  S
C1210      C1211   1.408       .  A
C1210      F1215   1.357       .  S
C1211      C1212   1.410       .  A
C1212      F1213   1.359       .  S
C1217      C1218   1.412       .  A
C1217      C1222   1.402       .  A
C1217      F1224   1.357       .  S
C1218      C1219   1.407       .  A
C1219      C1220   1.390       .  A
C1219      F1226   1.358       .  S
C1220      C1221   1.404       .  A
C1220      F1225   1.359       .  S
C1221      C1222   1.405       .  A
C1222      F1223   1.358       .  S
C1227      C1228   1.404       .  A
C1227      C1232   1.388       .  A
C1227      F1234   1.359       .  S
C1228      C1229   1.409       .  A
C1229      C1230   1.406       .  A
C1229      F1236   1.357       .  S
C1230      C1231   1.408       .  A
C1230      F1235   1.357       .  S
C1231      C1232   1.410       .  A
C1232      F1233   1.358       .  S
C1237      C1238   1.408       .  A
C1237      C1242   1.396       .  A
C1237      F1244   1.359       .  S
C1238      C1239   1.408       .  A
C1239      C1240   1.405       .  A
C1239      F1246   1.357       .  S
C1240      C1241   1.410       .  A
C1240      F1245   1.357       .  S
C1241      C1242   1.408       .  A
C1242      F1243   1.356       .  S
C1247      C1248   1.410       .  A
C1247      C1252   1.404       .  A
C1247      F1254   1.358       .  S
C1248      C1249   1.414       .  A
C1249      C1250   1.402       .  A
C1249      F1256   1.358       .  S
C1250      C1251   1.409       .  A
C1250      F1255   1.357       .  S
C1251      C1252   1.413       .  A
C1252      F1253   1.358       .  S
C1257      C1258   1.410       .  A
C1257      C1262   1.406       .  A
C1257      F1264   1.358       .  S
C1258      C1259   1.406       .  A
C1259      C1260   1.396       .  A
C1259      F1266   1.358       .  S
C1260      C1261   1.410       .  A
C1260      F1265   1.357       .  S
C1261      C1262   1.411       .  A
C1262      F1263   1.358       .  S
C1267      C1268   1.412       .  A
C1267      C1272   1.413       .  A
C1267      F1274   1.357       .  S
C1268      C1269   1.411       .  A
C1269      C1270   1.395       .  A
C1269      F1276   1.359       .  S
C1270      C1271   1.410       .  A
C1270      F1275   1.359       .  S
C1271      C1272   1.411       .  A
C1272      F1273   1.357       .  S
C1277      C1278   1.408       .  A
C1277      C1282   1.392       .  A
C1277      F1284   1.358       .  S
C1278      C1279   1.408       .  A
C1279      C1280   1.407       .  A
C1279      F1286   1.357       .  S
C1280      C1281   1.410       .  A
C1280      F1285   1.358       .  S
C1281      C1282   1.406       .  A
C1282      F1283   1.358       .  S
C1287      C1288   1.406       .  A
C1287      C1292   1.402       .  A
C1287      F1294   1.357       .  S
C1288      C1289   1.407       .  A
C1289      C1290   1.397       .  A
C1289      F1296   1.358       .  S
C1290      C1291   1.406       .  A
C1290      F1295   1.358       .  S
C1291      C1292   1.408       .  A
C1292      F1293   1.355       .  S
C1297      C1298   1.411       .  A
C1297      C1302   1.396       .  A
C1297      F1304   1.357       .  S
C1298      C1299   1.408       .  A
C1299      C1300   1.387       .  A
C1299      F1306   1.359       .  S
C1300      C1301   1.402       .  A
C1300      F1305   1.352       .  S
C1301      C1302   1.402       .  A
C1302      F1303   1.358       .  S
C1307      C1308   1.407       .  A
C1307      C1312   1.409       .  A
C1307      F1314   1.357       .  S
C1308      C1309   1.408       .  A
C1309      C1310   1.388       .  A
C1309      F1316   1.357       .  S
C1310      C1311   1.407       .  A
C1310      F1315   1.358       .  S
C1311      C1312   1.412       .  A
C1312      F1313   1.357       .  S
C1317      C1318   1.412       .  A
C1317      C1322   1.390       .  A
C1317      F1324   1.358       .  S
C1318      C1319   1.410       .  A
C1319      C1320   1.398       .  A
C1319      F1326   1.357       .  S
C1320      C1321   1.401       .  A
C1320      F1325   1.358       .  S
C1321      C1322   1.400       .  A
C1322      F1323   1.359       .  S
C1327      C1328   1.411       .  A
C1327      C1332   1.388       .  A
C1327      F1334   1.358       .  S
C1328      C1329   1.411       .  A
C1329      C1330   1.394       .  A
C1329      F1336   1.358       .  S
C1330      C1331   1.402       .  A
C1330      F1335   1.358       .  S
C1331      C1332   1.403       .  A
C1332      F1333   1.359       .  S
C1337      C1338   1.412       .  A
C1337      C1342   1.415       .  A
C1337      F1344   1.357       .  S
C1338      C1339   1.413       .  A
C1339      C1340   1.395       .  A
C1339      F1346   1.358       .  S
C1340      C1341   1.407       .  A
C1340      F1345   1.358       .  S
C1341      C1342   1.415       .  A
C1342      F1343   1.357       .  S
C1347      C1348   1.397       .  A
C1347      C1352   1.390       .  A
C1347      F1354   1.358       .  S
C1348      C1349   1.417       .  A
C1349      C1350   1.395       .  A
C1349      F1356   1.358       .  S
C1350      C1351   1.396       .  A
C1350      F1355   1.357       .  S
C1351      C1352   1.416       .  A
C1352      F1353   1.359       .  S
C1357      C1358   1.405       .  A
C1357      C1362   1.393       .  A
C1357      F1364   1.358       .  S
C1358      C1359   1.413       .  A
C1359      C1360   1.405       .  A
C1359      F1366   1.358       .  S
C1360      C1361   1.406       .  A
C1360      F1365   1.357       .  S
C1361      C1362   1.412       .  A
C1362      F1363   1.359       .  S
C1367      C1368   1.395       .  A
C1367      C1372   1.397       .  A
C1367      F1374   1.357       .  S
C1368      C1369   1.418       .  A
C1369      C1370   1.397       .  A
C1369      F1376   1.359       .  S
C1370      C1371   1.400       .  A
C1370      F1375   1.358       .  S
C1371      C1372   1.421       .  A
C1372      F1373   1.358       .  S
C1377      C1378   1.416       .  A
C1377      C1382   1.395       .  A
C1377      F1384   1.359       .  S
C1378      C1379   1.399       .  A
C1379      C1380   1.402       .  A
C1379      F1386   1.357       .  S
C1380      C1381   1.418       .  A
C1380      F1385   1.358       .  S
C1381      C1382   1.400       .  A
C1382      F1383   1.358       .  S
C1387      C1388   1.411       .  A
C1387      C1392   1.403       .  A
C1387      F1394   1.357       .  S
C1388      C1389   1.417       .  A
C1389      C1390   1.404       .  A
C1389      F1396   1.358       .  S
C1390      C1391   1.405       .  A
C1390      F1395   1.356       .  S
C1391      C1392   1.409       .  A
C1392      F1393   1.358       .  S
C1397      C1398   1.399       .  A
C1397      C1402   1.401       .  A
C1397      F1404   1.357       .  S
C1398      C1399   1.413       .  A
C1399      C1400   1.390       .  A
C1399      F1406   1.358       .  S
C1400      C1401   1.396       .  A
C1400      F1405   1.358       .  S
C1401      C1402   1.415       .  A
C1402      F1403   1.358       .  S
C1407      C1408   1.410       .  A
C1407      C1412   1.404       .  A
C1407      F1414   1.358       .  S
C1408      C1409   1.408       .  A
C1409      C1410   1.394       .  A
C1409      F1416   1.357       .  S
C1410      C1411   1.410       .  A
C1410      F1415   1.358       .  S
C1411      C1412   1.412       .  A
C1412      F1413   1.358       .  S
C1417      C1418   1.410       .  A
C1417      C1422   1.389       .  A
C1417      F1424   1.359       .  S
C1418      C1419   1.407       .  A
C1419      C1420   1.399       .  A
C1419      F1426   1.358       .  S
C1420      C1421   1.409       .  A
C1420      F1425   1.357       .  S
C1421      C1422   1.405       .  A
C1422      F1423   1.359       .  S
C1427      C1428   1.399       .  A
C1427      C1432   1.393       .  A
C1427      F1434   1.358       .  S
C1428      C1429   1.404       .  A
C1429      C1430   1.400       .  A
C1429      F1436   1.356       .  S
C1430      C1431   1.406       .  A
C1430      F1435   1.358       .  S
C1431      C1432   1.411       .  A
C1432      F1433   1.358       .  S
C1437      C1438   1.403       .  A
C1437      C1442   1.382       .  A
C1437      F1444   1.359       .  S
C1438      C1439   1.413       .  A
C1439      C1440   1.402       .  A
C1439      F1446   1.357       .  S
C1440      C1441   1.402       .  A
C1440      F1445   1.357       .  S
C1441      C1442   1.405       .  A
C1442      F1443   1.355       .  S
C1447      C1448   1.394       .  A
C1447      C1452   1.381       .  A
C1447      F1454   1.359       .  S
C1448      C1449   1.410       .  A
C1449      C1450   1.403       .  A
C1449      F1456   1.358       .  S
C1450      C1451   1.403       .  A
C1450      F1455   1.357       .  S
C1451      C1452   1.408       .  A
C1452      F1453   1.350       .  S
C1457      C1458   1.408       .  A
C1457      C1462   1.414       .  A
C1457      F1464   1.357       .  S
C1458      C1459   1.405       .  A
C1459      C1460   1.400       .  A
C1459      F1466   1.358       .  S
C1460      C1461   1.414       .  A
C1460      F1465   1.358       .  S
C1461      C1462   1.413       .  A
C1462      F1463   1.357       .  S
C1467      C1468   1.407       .  A
C1467      C1472   1.396       .  A
C1467      F1474   1.358       .  S
C1468      C1469   1.416       .  A
C1469      C1470   1.403       .  A
C1469      F1476   1.358       .  S
C1470      C1471   1.404       .  A
C1470      F1475   1.357       .  S
C1471      C1472   1.411       .  A
C1472      F1473   1.359       .  S
C1477      C1478   1.399       .  A
C1477      C1482   1.400       .  A
C1477      F1484   1.358       .  S
C1478      C1479   1.416       .  A
C1479      C1480   1.401       .  A
C1479      F1486   1.358       .  S
C1480      C1481   1.402       .  A
C1480      F1485   1.357       .  S
C1481      C1482   1.419       .  A
C1482      F1483   1.358       .  S
C1487      C1488   1.417       .  A
C1487      C1492   1.399       .  A
C1487      F1494   1.358       .  S
C1488      C1489   1.405       .  A
C1489      C1490   1.397       .  A
C1489      F1496   1.358       .  S
C1490      C1491   1.414       .  A
C1490      F1495   1.359       .  S
C1491      C1492   1.400       .  A
C1492      F1493   1.357       .  S
C1497      C1498   1.408       .  A
C1497      C1502   1.384       .  A
C1497      F1504   1.359       .  S
C1498      C1499   1.409       .  A
C1499      C1500   1.402       .  A
C1499      F1506   1.355       .  S
C1500      C1501   1.404       .  A
C1500      F1505   1.357       .  S
C1501      C1502   1.405       .  A
C1502      F1503   1.357       .  S
C1507      C1508   1.409       .  A
C1507      C1512   1.404       .  A
C1507      F1514   1.358       .  S
C1508      C1509   1.400       .  A
C1509      C1510   1.390       .  A
C1509      F1516   1.359       .  S
C1510      C1511   1.408       .  A
C1510      F1515   1.356       .  S
C1511      C1512   1.405       .  A
C1512      F1513   1.357       .  S
C1517      C1518   1.408       .  A
C1517      C1522   1.388       .  A
C1517      F1524   1.359       .  S
C1518      C1519   1.402       .  A
C1519      C1520   1.381       .  A
C1519      F1526   1.359       .  S
C1520      C1521   1.403       .  A
C1520      F1525   1.359       .  S
C1521      C1522   1.399       .  A
C1522      F1523   1.357       .  S
C1527      C1528   1.411       .  A
C1527      C1532   1.392       .  A
C1527      F1534   1.358       .  S
C1528      C1529   1.406       .  A
C1529      C1530   1.400       .  A
C1529      F1536   1.357       .  S
C1530      C1531   1.403       .  A
C1530      F1535   1.356       .  S
C1531      C1532   1.398       .  A
C1532      F1533   1.359       .  S
C1537      C1538   1.409       .  A
C1537      C1542   1.402       .  A
C1537      F1544   1.358       .  S
C1538      C1539   1.416       .  A
C1539      C1540   1.414       .  A
C1539      F1546   1.357       .  S
C1540      C1541   1.410       .  A
C1540      F1545   1.357       .  S
C1541      C1542   1.415       .  A
C1542      F1543   1.358       .  S
C1547      C1548   1.396       .  A
C1547      C1552   1.396       .  A
C1547      F1554   1.358       .  S
C1548      C1549   1.412       .  A
C1549      C1550   1.395       .  A
C1549      F1556   1.358       .  S
C1550      C1551   1.400       .  A
C1550      F1555   1.357       .  S
C1551      C1552   1.418       .  A
C1552      F1553   1.359       .  S
C1557      C1558   1.412       .  A
C1557      C1562   1.412       .  A
C1557      F1564   1.358       .  S
C1558      C1559   1.410       .  A
C1559      C1560   1.400       .  A
C1559      F1566   1.358       .  S
C1560      C1561   1.412       .  A
C1560      F1565   1.358       .  S
C1561      C1562   1.415       .  A
C1562      F1563   1.357       .  S
C1567      C1568   1.405       .  A
C1567      C1572   1.409       .  A
C1567      F1574   1.357       .  S
C1568      C1569   1.401       .  A
C1569      C1570   1.390       .  A
C1569      F1576   1.359       .  S
C1570      C1571   1.411       .  A
C1570      F1575   1.356       .  S
C1571      C1572   1.413       .  A
C1572      F1573   1.357       .  S
C1577      C1578   1.405       .  A
C1577      C1582   1.395       .  A
C1577      F1584   1.358       .  S
C1578      C1579   1.410       .  A
C1579      C1580   1.388       .  A
C1579      F1586   1.357       .  S
C1580      C1581   1.396       .  A
C1580      F1585   1.356       .  S
C1581      C1582   1.404       .  A
C1582      F1583   1.358       .  S
C1587      C1588   1.415       .  A
C1587      C1592   1.407       .  A
C1587      F1594   1.357       .  S
C1588      C1589   1.408       .  A
C1589      C1590   1.390       .  A
C1589      F1596   1.358       .  S
C1590      C1591   1.409       .  A
C1590      F1595   1.356       .  S
C1591      C1592   1.406       .  A
C1592      F1593   1.357       .  S
C1597      C1598   1.406       .  A
C1597      C1602   1.383       .  A
C1597      F1604   1.359       .  S
C1598      C1599   1.400       .  A
C1599      C1600   1.392       .  A
C1599      F1606   1.358       .  S
C1600      C1601   1.415       .  A
C1600      F1605   1.358   1_655  S
C1601      C1602   1.402       .  A
C1602      F1603   1.358       .  S
C1607      C1608   1.408       .  A
C1607      C1612   1.389       .  A
C1607      F1614   1.358       .  S
C1608      C1609   1.398       .  A
C1609      C1610   1.386       .  A
C1609      F1616   1.358       .  S
C1610      C1611   1.407       .  A
C1610      F1615   1.359       .  S
C1611      C1612   1.399       .  A
C1612      F1613   1.358       .  S
C1617      C1618   1.407       .  A
C1617      C1622   1.389       .  A
C1617      F1624   1.359       .  S
C1618      C1619   1.410       .  A
C1619      C1620   1.401       .  A
C1619      F1626   1.358   1_554  S
C1620      C1621   1.403       .  A
C1620      F1625   1.357   1_554  S
C1621      C1622   1.408       .  A
C1622      F1623   1.358       .  S
C1627      C1628   1.407       .  A
C1627      C1632   1.392       .  A
C1627      F1634   1.359       .  S
C1628      C1629   1.415       .  A
C1629      C1630   1.404       .  A
C1629      F1636   1.357       .  S
C1630      C1631   1.403       .  A
C1630      F1635   1.357       .  S
C1631      C1632   1.409       .  A
C1632      F1633   1.357       .  S
C1637      C1638   1.403       .  A
C1637      C1642   1.385       .  A
C1637      F1644   1.358       .  S
C1638      C1639   1.409       .  A
C1639      C1640   1.391       .  A
C1639      F1646   1.356       .  S
C1640      C1641   1.400       .  A
C1640      F1645   1.358       .  S
C1641      C1642   1.403       .  A
C1642      F1643   1.359       .  S
C1647      C1648   1.408       .  A
C1647      C1652   1.387       .  A
C1647      F1654   1.356       .  S
C1648      C1649   1.402       .  A
C1649      C1650   1.390       .  A
C1649      F1656   1.358       .  S
C1650      C1651   1.408       .  A
C1650      F1655   1.357       .  S
C1651      C1652   1.403       .  A
C1652      F1653   1.359       .  S
C1657      C1658   1.416       .  A
C1657      C1662   1.414       .  A
C1657      F1664   1.357       .  S
C1658      C1659   1.413       .  A
C1659      C1660   1.397       .  A
C1659      F1666   1.358       .  S
C1660      C1661   1.403       .  A
C1660      F1665   1.356       .  S
C1661      C1662   1.407       .  A
C1662      F1663   1.357       .  S
C1667      C1668   1.409       .  A
C1667      C1672   1.396       .  A
C1667      F1674   1.359       .  S
C1668      C1669   1.402       .  A
C1669      C1670   1.402       .  A
C1669      F1676   1.357       .  S
C1670      C1671   1.416       .  A
C1670      F1675   1.356       .  S
C1671      C1672   1.408       .  A
C1672      F1673   1.358       .  S
C1677      C1678   1.409       .  A
C1677      C1682   1.398       .  A
C1677      F1684   1.358       .  S
C1678      C1679   1.407       .  A
C1679      C1680   1.415       .  A
C1679      F1686   1.357       .  S
C1680      C1681   1.417       .  A
C1680      F1685   1.357       .  S
C1681      C1682   1.412       .  A
C1682      F1683   1.358       .  S
C1687      C1688   1.409       .  A
C1687      C1692   1.390       .  A
C1687      F1694   1.358       .  S
C1688      C1689   1.412       .  A
C1689      C1690   1.413       .  A
C1689      F1696   1.357       .  S
C1690      C1691   1.412       .  A
C1690      F1695   1.357       .  S
C1691      C1692   1.409       .  A
C1692      F1693   1.356       .  S
C1697      C1698   1.404       .  A
C1697      C1702   1.405       .  A
C1697      F1704   1.357       .  S
C1698      C1699   1.400       .  A
C1699      C1700   1.387       .  A
C1699      F1706   1.359       .  S
C1700      C1701   1.411       .  A
C1700      F1705   1.358       .  S
C1701      C1702   1.410       .  A
C1702      F1703   1.357       .  S
C1707      C1708   1.414       .  A
C1707      C1712   1.405       .  A
C1707      F1714   1.357       .  S
C1708      C1709   1.409       .  A
C1709      C1710   1.397       .  A
C1709      F1716   1.358       .  S
C1710      C1711   1.410       .  A
C1710      F1715   1.359       .  S
C1711      C1712   1.405       .  A
C1712      F1713   1.357       .  S
C1717      C1718   1.416       .  A
C1717      C1722   1.397       .  A
C1717      F1724   1.358       .  S
C1718      C1719   1.400       .  A
C1719      C1720   1.395       .  A
C1719      F1726   1.356       .  S
C1720      C1721   1.411       .  A
C1720      F1725   1.358       .  S
C1721      C1722   1.397       .  A
C1722      F1723   1.358       .  S
C1727      C1728   1.423       .  A
C1727      C1732   1.407       .  A
C1727      F1734   1.357       .  S
C1728      C1729   1.406       .  A
C1729      C1730   1.410       .  A
C1729      F1736   1.357       .  S
C1730      C1731   1.420       .  A
C1730      F1735   1.358       .  S
C1731      C1732   1.402       .  A
C1732      F1733   1.357       .  S
C1737      C1738   1.411       .  A
C1737      C1742   1.386       .  A
C1737      F1744   1.359       .  S
C1738      C1739   1.407       .  A
C1739      C1740   1.396       .  A
C1739      F1746   1.358       .  S
C1740      C1741   1.407       .  A
C1740      F1745   1.358       .  S
C1741      C1742   1.398       .  A
C1742      F1743   1.352       .  S
C1747      C1748   1.402       .  A
C1747      C1752   1.385       .  A
C1747      F1754   1.359       .  S
C1748      C1749   1.406       .  A
C1749      C1750   1.403       .  A
C1749      F1756   1.357       .  S
C1750      C1751   1.408       .  A
C1750      F1755   1.357       .  S
C1751      C1752   1.413       .  A
C1752      F1753   1.358       .  S
C1757      C1758   1.403       .  A
C1757      C1762   1.400       .  A
C1757      F1764   1.356       .  S
C1758      C1759   1.398       .  A
C1759      C1760   1.393       .  A
C1759      F1766   1.358       .  S
C1760      C1761   1.412       .  A
C1760      F1765   1.358       .  S
C1761      C1762   1.410       .  A
C1762      F1763   1.358       .  S
C1767      C1768   1.410       .  A
C1767      C1772   1.383       .  A
C1767      F1774   1.359       .  S
C1768      C1769   1.411       .  A
C1769      C1770   1.395       .  A
C1769      F1776   1.358       .  S
C1770      C1771   1.402       .  A
C1770      F1775   1.357       .  S
C1771      C1772   1.402       .  A
C1772      F1773   1.359       .  S
C1777      C1778   1.399       .  A
C1777      C1782   1.395       .  A
C1777      F1784   1.358       .  S
C1778      C1779   1.416       .  A
C1779      C1780   1.401       .  A
C1779      F1786   1.358       .  S
C1780      C1781   1.399       .  A
C1780      F1785   1.357       .  S
C1781      C1782   1.413       .  A
C1782      F1783   1.357       .  S
C1787      C1788   1.411       .  A
C1787      C1792   1.401       .  A
C1787      F1794   1.358       .  S
C1788      C1789   1.406       .  A
C1789      C1790   1.411       .  A
C1789      F1796   1.355       .  S
C1790      C1791   1.417       .  A
C1790      F1795   1.356       .  S
C1791      C1792   1.410       .  A
C1792      F1793   1.357       .  S
C1797      C1798   1.414       .  A
C1797      C1802   1.395       .  A
C1797      F1804   1.358       .  S
C1798      C1799   1.399       .  A
C1799      C1800   1.393       .  A
C1799      F1806   1.358       .  S
C1800      C1801   1.414       .  A
C1800      F1805   1.359       .  S
C1801      C1802   1.398       .  A
C1802      F1803   1.358       .  S
C1807      C1808   1.405       .  A
C1807      C1812   1.407       .  A
C1807      F1814   1.358       .  S
C1808      C1809   1.410       .  A
C1809      C1810   1.390       .  A
C1809      F1816   1.359       .  S
C1810      C1811   1.403       .  A
C1810      F1815   1.358       .  S
C1811      C1812   1.415       .  A
C1812      F1813   1.357       .  S
C1817      C1818   1.413       .  A
C1817      C1822   1.392       .  A
C1817      F1824   1.359       .  S
C1818      C1819   1.402       .  A
C1819      C1820   1.391       .  A
C1819      F1826   1.358       .  S
C1820      C1821   1.410       .  A
C1820      F1825   1.358       .  S
C1821      C1822   1.402       .  A
C1822      F1823   1.358       .  S
C1827      C1828   1.412       .  A
C1827      C1832   1.385       .  A
C1827      F1834   1.358   1_455  S
C1828      C1829   1.410       .  A
C1829      C1830   1.399       .  A
C1829      F1836   1.358       .  S
C1830      C1831   1.405       .  A
C1830      F1835   1.357       .  S
C1831      C1832   1.401       .  A
C1832      F1833   1.359   1_455  S
C1837      C1838   1.412       .  A
C1837      C1842   1.402       .  A
C1837      F1844   1.358       .  S
C1838      C1839   1.406       .  A
C1839      C1840   1.387       .  A
C1839      F1846   1.357       .  S
C1840      C1841   1.409       .  A
C1840      F1845   1.357       .  S
C1841      C1842   1.406       .  A
C1842      F1843   1.357       .  S
C1847      C1848   1.409       .  A
C1847      C1852   1.389       .  A
C1847      F1854   1.358       .  S
C1848      C1849   1.408       .  A
C1849      C1850   1.401       .  A
C1849      F1856   1.357       .  S
C1850      C1851   1.408       .  A
C1850      F1855   1.358       .  S
C1851      C1852   1.406       .  A
C1852      F1853   1.357       .  S
C1857      C1858   1.417       .  A
C1857      C1862   1.397       .  A
C1857      F1864   1.358       .  S
C1858      C1859   1.404       .  A
C1859      C1860   1.401       .  A
C1859      F1866   1.358       .  S
C1860      C1861   1.414       .  A
C1860      F1865   1.358       .  S
C1861      C1862   1.400       .  A
C1862      F1863   1.357       .  S
C1867      C1868   1.417       .  A
C1867      C1872   1.400       .  A
C1867      F1874   1.358       .  S
C1868      C1869   1.403       .  A
C1869      C1870   1.406       .  A
C1869      F1876   1.357       .  S
C1870      C1871   1.418       .  A
C1870      F1875   1.358       .  S
C1871      C1872   1.401       .  A
C1872      F1873   1.357       .  S
C1877      C1878   1.401       .  A
C1877      C1882   1.401       .  A
C1877      F1884   1.355       .  S
C1878      C1879   1.407       .  A
C1879      C1880   1.397       .  A
C1879      F1886   1.358       .  S
C1880      C1881   1.409       .  A
C1880      F1885   1.358       .  S
C1881      C1882   1.416       .  A
C1882      F1883   1.357       .  S
C1887      C1888   1.402       .  A
C1887      C1892   1.398       .  A
C1887      F1894   1.358       .  S
C1888      C1889   1.409       .  A
C1889      C1890   1.413       .  A
C1889      F1896   1.357       .  S
C1890      C1891   1.412       .  A
C1890      F1895   1.357       .  S
C1891      C1892   1.413       .  A
C1892      F1893   1.356       .  S
C1897      C1898   1.406       .  A
C1897      C1902   1.401       .  A
C1897      F1904   1.357   1_554  S
C1898      C1899   1.411       .  A
C1899      C1900   1.390       .  A
C1899      F1906   1.355       .  S
C1900      C1901   1.398       .  A
C1900      F1905   1.359       .  S
C1901      C1902   1.406       .  A
C1902      F1903   1.358       .  S
C1907      C1908   1.407       .  A
C1907      C1912   1.384       .  A
C1907      F1914   1.359       .  S
C1908      C1909   1.409       .  A
C1909      C1910   1.403       .  A
C1909      F1916   1.357       .  S
C1910      C1911   1.403       .  A
C1910      F1915   1.357       .  S
C1911      C1912   1.401       .  A
C1912      F1913   1.358       .  S
C1917      C1918   1.403       .  A
C1917      C1922   1.397       .  A
C1917      F1924   1.358       .  S
C1918      C1919   1.399       .  A
C1919      C1920   1.388       .  A
C1919      F1926   1.359       .  S
C1920      C1921   1.408       .  A
C1920      F1925   1.359       .  S
C1921      C1922   1.404       .  A
C1922      F1923   1.358       .  S
C1927      C1928   1.410       .  A
C1927      C1932   1.388       .  A
C1927      F1934   1.358       .  S
C1928      C1929   1.405       .  A
C1929      C1930   1.389       .  A
C1929      F1936   1.358       .  S
C1930      C1931   1.404       .  A
C1930      F1935   1.359       .  S
C1931      C1932   1.398       .  A
C1932      F1933   1.358       .  S
C1937      C1938   1.414       .  A
C1937      C1942   1.389       .  A
C1937      F1944   1.358       .  S
C1938      C1939   1.406       .  A
C1939      C1940   1.396       .  A
C1939      F1946   1.358       .  S
C1940      C1941   1.408       .  A
C1940      F1945   1.358       .  S
C1941      C1942   1.401       .  A
C1942      F1943   1.358       .  S
C1947      C1948   1.404       .  A
C1947      C1952   1.389       .  A
C1947      F1954   1.359       .  S
C1948      C1949   1.402       .  A
C1949      C1950   1.388       .  A
C1949      F1956   1.358       .  S
C1950      C1951   1.402       .  A
C1950      F1955   1.358       .  S
C1951      C1952   1.402       .  A
C1952      F1953   1.359       .  S
C1957      C1958   1.397       .  A
C1957      C1962   1.387       .  A
C1957      F1964   1.357       .  S
C1958      C1959   1.405       .  A
C1959      C1960   1.394       .  A
C1959      F1966   1.358       .  S
C1960      C1961   1.402       .  A
C1960      F1965   1.358       .  S
C1961      C1962   1.409       .  A
C1962      F1963   1.358       .  S
C1967      C1968   1.414       .  A
C1967      C1972   1.402       .  A
C1967      F1974   1.358       .  S
C1968      C1969   1.407       .  A
C1969      C1970   1.389       .  A
C1969      F1976   1.358       .  S
C1970      C1971   1.407       .  A
C1970      F1975   1.358       .  S
C1971      C1972   1.404       .  A
C1972      F1973   1.358       .  S
C1977      C1978   1.414       .  A
C1977      C1982   1.413       .  A
C1977      F1984   1.357       .  S
C1978      C1979   1.411       .  A
C1979      C1980   1.401       .  A
C1979      F1986   1.357       .  S
C1980      C1981   1.412       .  A
C1980      F1985   1.354       .  S
C1981      C1982   1.415       .  A
C1982      F1983   1.357       .  S
C1987      C1988   1.409       .  A
C1987      C1992   1.422       .  A
C1987      F1994   1.356       .  S
C1988      C1989   1.412       .  A
C1989      C1990   1.398       .  A
C1989      F1996   1.356       .  S
C1990      C1991   1.409       .  A
C1990      F1995   1.358       .  S
C1991      C1992   1.421       .  A
C1992      F1993   1.357       .  S
C1997      C1998   1.412       .  A
C1997      C2002   1.409       .  A
C1997      F2004   1.357       .  S
C1998      C1999   1.408       .  A
C1999      C2000   1.390       .  A
C1999      F2006   1.359       .  S
C2000      C2001   1.410       .  A
C2000      F2005   1.356       .  S
C2001      C2002   1.411       .  A
C2002      F2003   1.357       .  S
C2007      C2008   1.417       .  A
C2007      C2012   1.396       .  A
C2007      F2014   1.358       .  S
C2008      C2009   1.402       .  A
C2009      C2010   1.405       .  A
C2009      F2016   1.357       .  S
C2010      C2011   1.418       .  A
C2010      F2015   1.358       .  S
C2011      C2012   1.399       .  A
C2012      F2013   1.358       .  S
C2017      C2018   1.412       .  A
C2017      C2022   1.415       .  A
C2017      F2024   1.357       .  S
C2018      C2019   1.414       .  A
C2019      C2020   1.401       .  A
C2019      F2026   1.357       .  S
C2020      C2021   1.411       .  A
C2020      F2025   1.358       .  S
C2021      C2022   1.416       .  A
C2022      F2023   1.357       .  S
C2027      C2028   1.407       .  A
C2027      C2032   1.389       .  A
C2027      F2034   1.358       .  S
C2028      C2029   1.407       .  A
C2029      C2030   1.416       .  A
C2029      F2036   1.357       .  S
C2030      C2031   1.417       .  A
C2030      F2035   1.357       .  S
C2031      C2032   1.410       .  A
C2032      F2033   1.358       .  S
C2037      C2038   1.415       .  A
C2037      C2042   1.405       .  A
C2037      F2044   1.358       .  S
C2038      C2039   1.412       .  A
C2039      C2040   1.415       .  A
C2039      F2046   1.357       .  S
C2040      C2041   1.415       .  A
C2040      F2045   1.357       .  S
C2041      C2042   1.413       .  A
C2042      F2043   1.358       .  S
C2047      C2048   1.414       .  A
C2047      C2052   1.386       .  A
C2047      F2054   1.359       .  S
C2048      C2049   1.406       .  A
C2049      C2050   1.408       .  A
C2049      F2056   1.357       .  S
C2050      C2051   1.414       .  A
C2050      F2055   1.356       .  S
C2051      C2052   1.401       .  A
C2052      F2053   1.359       .  S
C2057      C2058   1.400   1_554  A
C2057      C2062   1.389       .  A
C2057      F2064   1.358       .  S
C2058      C2059   1.410       .  A
C2059      C2060   1.390       .  A
C2059      F2066   1.358       .  S
C2060      C2061   1.400   1_556  A
C2060      F2065   1.358       .  S
C2061      C2062   1.409       .  A
C2062      F2063   1.358       .  S
C2067      C2068   1.413       .  A
C2067      C2072   1.390       .  A
C2067      F2074   1.358       .  S
C2068      C2069   1.401       .  A
C2069      C2070   1.382       .  A
C2069      F2076   1.358       .  S
C2070      C2071   1.405       .  A
C2070      F2075   1.358   1_556  S
C2071      C2072   1.398       .  A
C2072      F2073   1.358       .  S
C2077      C2078   1.407       .  A
C2077      C2082   1.391       .  A
C2077      F2084   1.358       .  S
C2078      C2079   1.414       .  A
C2079      C2080   1.402       .  A
C2079      F2086   1.358       .  S
C2080      C2081   1.405       .  A
C2080      F2085   1.358       .  S
C2081      C2082   1.409       .  A
C2082      F2083   1.357       .  S
C2087      C2088   1.410       .  A
C2087      C2092   1.392       .  A
C2087      F2094   1.358       .  S
C2088      C2089   1.410       .  A
C2089      C2090   1.399       .  A
C2089      F2096   1.358       .  S
C2090      C2091   1.405       .  A
C2090      F2095   1.358       .  S
C2091      C2092   1.407       .  A
C2092      F2093   1.358       .  S
C2097      C2098   1.412       .  A
C2097      C2102   1.396       .  A
C2097      F2104   1.357       .  S
C2098      C2099   1.409       .  A
C2099      C2100   1.404       .  A
C2099      F2106   1.357       .  S
C2100      C2101   1.412       .  A
C2100      F2105   1.357       .  S
C2101      C2102   1.410       .  A
C2102      F2103   1.358       .  S
C2107      C2108   1.411       .  A
C2107      C2112   1.396       .  A
C2107      F2114   1.357       .  S
C2108      C2109   1.416       .  A
C2109      C2110   1.416       .  A
C2109      F2116   1.357       .  S
C2110      C2111   1.407       .  A
C2110      F2115   1.357       .  S
C2111      C2112   1.404       .  A
C2112      F2113   1.356       .  S
C2117      C2118   1.418       .  A
C2117      C2122   1.401       .  A
C2117      F2124   1.358       .  S
C2118      C2119   1.408       .  A
C2119      C2120   1.402       .  A
C2119      F2126   1.357       .  S
C2120      C2121   1.411       .  A
C2120      F2125   1.358       .  S
C2121      C2122   1.402       .  A
C2122      F2123   1.357       .  S
C2127      C2128   1.402       .  A
C2127      C2132   1.399       .  A
C2127      F2134   1.358       .  S
C2128      C2129   1.417       .  A
C2129      C2130   1.407       .  A
C2129      F2136   1.358       .  S
C2130      C2131   1.404       .  A
C2130      F2135   1.357       .  S
C2131      C2132   1.416       .  A
C2132      F2133   1.358       .  S
C2137      C2138   1.397       .  A
C2137      C2142   1.393       .  A
C2137      F2144   1.357       .  S
C2138      C2139   1.392       .  A
C2139      C2140   1.377       .  A
C2139      F2146   1.358       .  S
C2140      C2141   1.409       .  A
C2140      F2145   1.359       .  S
C2141      C2142   1.408       .  A
C2142      F2143   1.357       .  S
C2147      C2148   1.402       .  A
C2147      C2152   1.393       .  A
C2147      F2154   1.358       .  S
C2148      C2149   1.402       .  A
C2149      C2150   1.383       .  A
C2149      F2156   1.355       .  S
C2150      C2151   1.397       .  A
C2150      F2155   1.358       .  S
C2151      C2152   1.403       .  A
C2152      F2153   1.358   1_554  S
C2157      C2158   1.400       .  A
C2157      C2162   1.402       .  A
C2157      F2164   1.357       .  S
C2158      C2159   1.407       .  A
C2159      C2160   1.388       .  A
C2159      F2166   1.359       .  S
C2160      C2161   1.399       .  A
C2160      F2165   1.358       .  S
C2161      C2162   1.410       .  A
C2162      F2163   1.356       .  S
C2167      C2168   1.401       .  A
C2167      C2172   1.383       .  A
C2167      F2174   1.359       .  S
C2168      C2169   1.400       .  A
C2169      C2170   1.395       .  A
C2169      F2176   1.358       .  S
C2170      C2171   1.406       .  A
C2170      F2175   1.358       .  S
C2171      C2172   1.398       .  A
C2172      F2173   1.355       .  S
C2177      C2178   1.416       .  A
C2177      C2182   1.402       .  A
C2177      F2184   1.357       .  S
C2178      C2179   1.410       .  A
C2179      C2180   1.400       .  A
C2179      F2186   1.358       .  S
C2180      C2181   1.409       .  A
C2180      F2185   1.358       .  S
C2181      C2182   1.403       .  A
C2182      F2183   1.356       .  S
C2187      C2188   1.413       .  A
C2187      C2192   1.400       .  A
C2187      F2194   1.355       .  S
C2188      C2189   1.415       .  A
C2189      C2190   1.413       .  A
C2189      F2196   1.357       .  S
C2190      C2191   1.407       .  A
C2190      F2195   1.357       .  S
C2191      C2192   1.404       .  A
C2192      F2193   1.358       .  S
C2197      C2198   1.411       .  A
C2197      C2202   1.412       .  A
C2197      F2204   1.358       .  S
C2198      C2199   1.412       .  A
C2199      C2200   1.390       .  A
C2199      F2206   1.357       .  S
C2200      C2201   1.407       .  A
C2200      F2205   1.358       .  S
C2201      C2202   1.415       .  A
C2202      F2203   1.358       .  S
C2207      C2208   1.401       .  A
C2207      C2212   1.392       .  A
C2207      F2214   1.358       .  S
C2208      C2209   1.406       .  A
C2209      C2210   1.412       .  A
C2209      F2216   1.357       .  S
C2210      C2211   1.414       .  A
C2210      F2215   1.357       .  S
C2211      C2212   1.413       .  A
C2212      F2213   1.357       .  S
C2217      C2218   1.398       .  A
C2217      C2222   1.387       .  A
C2217      F2224   1.358       .  S
C2218      C2219   1.408       .  A
C2219      C2220   1.389       .  A
C2219      F2226   1.358       .  S
C2220      C2221   1.405       .  A
C2220      F2225   1.358       .  S
C2221      C2222   1.414       .  A
C2222      F2223   1.358   1_545  S
C2227      C2228   1.398       .  A
C2227      C2232   1.389       .  A
C2227      F2234   1.358       .  S
C2228      C2229   1.410       .  A
C2229      C2230   1.389       .  A
C2229      F2236   1.358       .  S
C2230      C2231   1.397       .  A
C2230      F2235   1.358       .  S
C2231      C2232   1.406       .  A
C2232      F2233   1.357       .  S
C2237      C2238   1.410       .  A
C2237      C2242   1.385       .  A
C2237      F2244   1.356       .  S
C2238      C2239   1.407       .  A
C2239      C2240   1.396       .  A
C2239      F2246   1.358       .  S
C2240      C2241   1.402       .  A
C2240      F2245   1.358       .  S
C2241      C2242   1.397       .  A
C2242      F2243   1.357       .  S
C2247      C2248   1.413       .  A
C2247      C2252   1.388       .  A
C2247      F2254   1.355       .  S
C2248      C2249   1.407       .  A
C2249      C2250   1.397       .  A
C2249      F2256   1.358       .  S
C2250      C2251   1.406       .  A
C2250      F2255   1.358       .  S
C2251      C2252   1.395       .  A
C2252      F2253   1.356       .  S
