geometry optimzed in LAMMPS
_audit_creation_date              2020-11-30 
_audit_creation_method            'lammps2cif' 
_symmetry_space_group_name_H-M    'P1' 
_symmetry_Int_Tables_number       1 
_symmetry_cell_setting            triclinic 
loop_ 
_symmetry_equiv_pos_as_xyz 
  x,y,z 
_cell_length_a                    73.89296815 
_cell_length_b                    73.87204326758219 
_cell_length_c                    73.90201126700323 
_cell_angle_alpha                 89.92158436755048 
_cell_angle_beta                  90.04658256303983 
_cell_angle_gamma                 90.12601450626707 
loop_ 
_atom_site_label 
_atom_site_type_symbol 
_atom_site_fract_x 
_atom_site_fract_y 
_atom_site_fract_z 
_atom_site_charge 
N1          N  0.52555590  0.08782587  0.50153191    -0.35900
N2          N  0.49683827  0.09179373  0.47508710    -0.56500
N3          N  0.47002376  0.09313351  0.50378343    -0.35900
N4          N  0.49895829  0.08835731  0.53020931    -0.56500
C5          C  0.53457905  0.08336101  0.48624551     0.27700
C6          C  0.53578523  0.08236218  0.51572461     0.27700
C7          C  0.45941921  0.08983132  0.48922401     0.27700
C8          C  0.46056510  0.08793034  0.51857891     0.27700
C9          C  0.51119838  0.09282527  0.46382727     0.36300
C10         C  0.48208279  0.09596956  0.46514662     0.36300
C11         C  0.51409802  0.08926981  0.54043999     0.36300
C12         C  0.48492841  0.09138003  0.54149257     0.36300
C13         C  0.55090732  0.07529379  0.49082041    -0.21200
C14         C  0.55162069  0.07458447  0.50940724    -0.21200
C15         C  0.44291291  0.08283484  0.49487976    -0.21200
C16         C  0.44361990  0.08169518  0.51341219    -0.21200
C17         C  0.50558040  0.09795310  0.44667213    -0.22300
C18         C  0.48710801  0.09993294  0.44750689    -0.22300
C19         C  0.50966042  0.09295104  0.55827727    -0.22300
C20         C  0.49115612  0.09426545  0.55894677    -0.22300
C21         C  0.52884957  0.08700154  0.46829248    -0.17600
C22         C  0.53168292  0.08516879  0.53421522    -0.17600
C23         C  0.46656288  0.08932603  0.53669001    -0.17600
C24         C  0.46409471  0.09320770  0.47098113    -0.17600
H25         H  0.56129166  0.07045785  0.48171784     0.15300
H26         H  0.56265701  0.06916909  0.51737322     0.15300
H27         H  0.43151387  0.07893624  0.48652827     0.15300
H28         H  0.43289155  0.07674457  0.52207995     0.15300
H29         H  0.51381946  0.09934265  0.43464557     0.13600
H30         H  0.47827908  0.10308223  0.43624320     0.13600
H31         H  0.51876363  0.09409873  0.56970028     0.13600
H32         H  0.48315576  0.09657092  0.57098609     0.13600
H33         H  0.51404852  0.09583571  0.50228761     0.26800
H34         H  0.48237459  0.09992452  0.50375146     0.26800
N35         N  0.11715750  0.47237190  0.53077010    -0.35900
N36         N  0.11846270  0.44461623  0.50261409    -0.56500
N37         N  0.12429757  0.47187869  0.47526524    -0.35900
N38         N  0.12201914  0.49970580  0.50342731    -0.56500
C39         C  0.11083153  0.45783090  0.53992092     0.27700
C40         C  0.11243871  0.48726744  0.54031353     0.27700
C41         C  0.12000017  0.45748057  0.46475900     0.27700
C42         C  0.12157027  0.48688846  0.46516371     0.27700
C43         C  0.11841045  0.43390521  0.51739925     0.36300
C44         C  0.12173296  0.43367883  0.48835962     0.36300
C45         C  0.12272442  0.51046620  0.51819474     0.36300
C46         C  0.12643898  0.51018547  0.48912490     0.36300
C47         C  0.10238937  0.46348026  0.55567988    -0.21200
C48         C  0.10342759  0.48205827  0.55594367    -0.21200
C49         C  0.11521076  0.46336577  0.44760679    -0.21200
C50         C  0.11600783  0.48191314  0.44790393    -0.21200
C51         C  0.12179474  0.41609172  0.51252385    -0.22300
C52         C  0.12387334  0.41595474  0.49408748    -0.22300
C53         C  0.12798396  0.52780857  0.51330090    -0.22300
C54         C  0.13022509  0.52765740  0.49484141    -0.22300
C55         C  0.11320016  0.43955872  0.53486198    -0.17600
C56         C  0.11633088  0.50542174  0.53549785    -0.17600
C57         C  0.12425758  0.50497650  0.47088432    -0.17600
C58         C  0.12042025  0.43914067  0.47015190    -0.17600
H59         H  0.09617642  0.45508130  0.56596583     0.15300
H60         H  0.09806723  0.49073581  0.56643097     0.15300
H61         H  0.11121915  0.45517217  0.43614042     0.15300
H62         H  0.11283456  0.49072138  0.43662993     0.15300
H63         H  0.12209815  0.40432437  0.52126561     0.13600
H64         H  0.12603822  0.40409682  0.48578395     0.13600
H65         H  0.12915655  0.53953602  0.52199158     0.13600
H66         H  0.13349205  0.53924751  0.48647199     0.13600
H67         H  0.12564809  0.47196078  0.51958397     0.26800
H68         H  0.13004393  0.47148184  0.48810126     0.26800
N69         N  0.49214928  0.85115685  0.52483356    -0.35900
N70         N  0.46400531  0.85077395  0.49713957    -0.56500
N71         N  0.49206724  0.85043466  0.46988238    -0.35900
N72         N  0.52020874  0.84885728  0.49768761    -0.56500
C73         C  0.47726127  0.84885002  0.53519141     0.27700
C74         C  0.50674346  0.84842614  0.53554146     0.27700
C75         C  0.47725950  0.84735065  0.45954133     0.27700
C76         C  0.50673739  0.84659292  0.45970685     0.27700
C77         C  0.45385553  0.85505610  0.51167911     0.36300
C78         C  0.45382895  0.85461051  0.48245094     0.36300
C79         C  0.53078377  0.85218372  0.51225992     0.36300
C80         C  0.53070472  0.85161526  0.48297800     0.36300
C81         C  0.48245291  0.84447735  0.55270551    -0.21200
C82         C  0.50106558  0.84428380  0.55294248    -0.21200
C83         C  0.48258200  0.84132747  0.44260502    -0.21200
C84         C  0.50122528  0.84095469  0.44267694    -0.21200
C85         C  0.43703133  0.86131915  0.50622591    -0.22300
C86         C  0.43698110  0.86094786  0.48767267    -0.22300
C87         C  0.54824011  0.85635036  0.50679987    -0.22300
C88         C  0.54817289  0.85608158  0.48824204    -0.22300
C89         C  0.45929469  0.85271336  0.52982503    -0.17600
C90         C  0.52493070  0.85151203  0.53045617    -0.17600
C91         C  0.52490796  0.84973150  0.46483779    -0.17600
C92         C  0.45929944  0.85175598  0.46439912    -0.17600
H93         H  0.47373640  0.84229434  0.56427359     0.15300
H94         H  0.50944071  0.84188886  0.56471949     0.15300
H95         H  0.47394896  0.83816759  0.43119409     0.15300
H96         H  0.50977608  0.83732942  0.43136833     0.15300
H97         H  0.42591585  0.86559108  0.51473024     0.13600
H98         H  0.42584856  0.86494478  0.47902639     0.13600
H99         H  0.55975256  0.85953890  0.51529100     0.13600
H100        H  0.55966683  0.85895269  0.47962620     0.13600
H101        H  0.49235954  0.85698124  0.51207412     0.26800
H102        H  0.49228559  0.85734501  0.48209237     0.26800
N103        N  0.88505561  0.46233603  0.47307635    -0.35900
N104        N  0.88523158  0.43613084  0.50211859    -0.56500
N105        N  0.88478295  0.46491379  0.52872614    -0.35900
N106        N  0.88508156  0.49111319  0.49950563    -0.56500
C107        C  0.88974080  0.44723290  0.46394723     0.27700
C108        C  0.88961083  0.47661684  0.46258088     0.27700
C109        C  0.88944838  0.45071628  0.53927871     0.27700
C110        C  0.88919945  0.48012095  0.53788279     0.27700
C111        C  0.88308280  0.42473586  0.48803575     0.36300
C112        C  0.88306080  0.42610673  0.51722840     0.36300
C113        C  0.88255259  0.50106460  0.48441020     0.36300
C114        C  0.88245352  0.50238832  0.51358558     0.36300
C115        C  0.89706698  0.45195094  0.44731063    -0.21200
C116        C  0.89697547  0.47053993  0.44644426    -0.21200
C117        C  0.89646152  0.45697125  0.55553590    -0.21200
C118        C  0.89629234  0.47556320  0.55465635    -0.21200
C119        C  0.87937935  0.40739026  0.49420109    -0.22300
C120        C  0.87935868  0.40826119  0.51274388    -0.22300
C121        C  0.87818191  0.51873425  0.48889201    -0.22300
C122        C  0.87812300  0.51957623  0.50743244    -0.22300
C123        C  0.88674424  0.42931895  0.46989576    -0.17600
C124        C  0.88627014  0.49491830  0.46678132    -0.17600
C125        C  0.88650781  0.49799574  0.53168472    -0.17600
C126        C  0.88710109  0.43227774  0.53481300    -0.17600
H127        H  0.90181953  0.44294035  0.43680924     0.15300
H128        H  0.90162255  0.47864604  0.43514696     0.15300
H129        H  0.90127279  0.44897938  0.56683798     0.15300
H130        H  0.90093927  0.48467780  0.56514274     0.15300
H131        H  0.87758606  0.39526141  0.48618841     0.13600
H132        H  0.87760782  0.39692520  0.52187832     0.13600
H133        H  0.87590156  0.52997019  0.47976053     0.13600
H134        H  0.87585138  0.53160508  0.51545628     0.13600
H135        H  0.87739368  0.46282043  0.48485603     0.26800
H136        H  0.87752477  0.46428765  0.51669374     0.26800
N137        N  0.50700878  0.49485751  0.11641907    -0.35900
N138        N  0.48267808  0.46451755  0.12002892    -0.56500
N139        N  0.51309882  0.43943719  0.11586445    -0.35900
N140        N  0.53738665  0.46965447  0.11063288    -0.56500
C141        C  0.49100170  0.50383250  0.11625444     0.27700
C142        C  0.52012658  0.50683597  0.11199903     0.27700
C143        C  0.49887343  0.42813944  0.11350083     0.27700
C144        C  0.52800426  0.43068754  0.10987188     0.27700
C145        C  0.47091876  0.47787249  0.12407207     0.36300
C146        C  0.47422345  0.44878655  0.12377431     0.36300
C147        C  0.54664244  0.48544606  0.11029168     0.36300
C148        C  0.54986213  0.45625613  0.11075669     0.36300
C149        C  0.49412804  0.52191736  0.11228033    -0.21200
C150        C  0.51247222  0.52388527  0.11001654    -0.21200
C151        C  0.50487141  0.41194880  0.10614316    -0.21200
C152        C  0.52327829  0.41348274  0.10406177    -0.21200
C153        C  0.45497658  0.47061919  0.13078624    -0.22300
C154        C  0.45704509  0.45214703  0.13054056    -0.22300
C155        C  0.56510733  0.48198762  0.10977963    -0.22300
C156        C  0.56712939  0.46352439  0.11020359    -0.22300
C157        C  0.47366620  0.49630879  0.11988546    -0.17600
C158        C  0.53882119  0.50297831  0.10972068    -0.17600
C159        C  0.54586870  0.43754648  0.11012768    -0.17600
C160        C  0.48079737  0.43156380  0.11881569    -0.17600
H161        H  0.48427965  0.53268345  0.11120561     0.15300
H162        H  0.51931339  0.53645571  0.10682204     0.15300
H163        H  0.49687409  0.40011016  0.10285358     0.15300
H164        H  0.53213572  0.40312260  0.09875941     0.15300
H165        H  0.44288770  0.47786370  0.13471804     0.13600
H166        H  0.44683362  0.44229637  0.13425587     0.13600
H167        H  0.57604404  0.49172747  0.10908139     0.13600
H168        H  0.57984132  0.45628181  0.10980943     0.13600
H169        H  0.50914680  0.48158215  0.12024371     0.26800
H170        H  0.51294942  0.45153583  0.12299743     0.26800
N171        N  0.49319261  0.49719048  0.85941657    -0.35900
N172        N  0.45147571  0.46736862  0.86067917    -0.56500
N173        N  0.49393896  0.44081516  0.86307711    -0.35900
N174        N  0.52091095  0.46997720  0.86585413    -0.56500
C175        C  0.47742859  0.50628080  0.86122899     0.27700
C176        C  0.50663534  0.50790698  0.86561493     0.27700
C177        C  0.47906263  0.43031468  0.86512386     0.27700
C178        C  0.50845794  0.43099053  0.86809991     0.27700
C179        C  0.45808964  0.48136098  0.85091856     0.36300
C180        C  0.45780515  0.45227658  0.85258626     0.36300
C181        C  0.53147624  0.48497350  0.86517239     0.36300
C182        C  0.53209914  0.45549762  0.86597428     0.36300
C183        C  0.48092072  0.52334216  0.86822087    -0.21200
C184        C  0.49940285  0.52443479  0.87084406    -0.21200
C185        C  0.48407255  0.41342849  0.87147414    -0.21200
C186        C  0.50270255  0.41371205  0.87299581    -0.21200
C187        C  0.46732826  0.47523189  0.83588126    -0.22300
C188        C  0.46711832  0.45671877  0.83691543    -0.22300
C189        C  0.54954273  0.47998174  0.86483414    -0.22300
C190        C  0.54994107  0.46136802  0.86526667    -0.22300
C191        C  0.46002862  0.49870937  0.85823708    -0.17600
C192        C  0.52516325  0.50306143  0.86680005    -0.17600
C193        C  0.52666255  0.43720445  0.86869987    -0.17600
C194        C  0.46113393  0.43640568  0.86243448    -0.17600
H195        H  0.47116313  0.53375677  0.87143981     0.15300
H196        H  0.50661552  0.53590753  0.87643311     0.15300
H197        H  0.47525669  0.40214563  0.87465979     0.15300
H198        H  0.51100369  0.40261015  0.87771209     0.15300
H199        H  0.47505406  0.48330266  0.82638281     0.13600
H200        H  0.47493907  0.44763264  0.82852734     0.13600
H201        H  0.56123090  0.48884158  0.86472981     0.13600
H202        H  0.56202227  0.45311450  0.86562403     0.13600
H203        H  0.49467891  0.48412976  0.85419683     0.26800
H204        H  0.49392428  0.45437315  0.85890266     0.26800
N205        N  0.99849498  0.58480608  0.03265205    -0.35900
N206        N  0.02573882  0.58381941  0.00447854    -0.56500
N207        N  0.99681632  0.58504909  0.97784005    -0.35900
N208        N  0.96950363  0.58780746  0.00606653    -0.56500
C209        C  0.01362015  0.58633675  0.04284233     0.27700
C210        C  0.98421765  0.58791928  0.04359494     0.27700
C211        C  0.01148806  0.58702191  0.96709225     0.27700
C212        C  0.98212825  0.58954959  0.96789661     0.27700
C213        C  0.03635772  0.57986147  0.01882117     0.36300
C214        C  0.03539006  0.57952546  0.98958954     0.36300
C215        C  0.95944712  0.58425306  0.02094425     0.36300
C216        C  0.95852618  0.58533942  0.99161814     0.36300
C217        C  0.00888682  0.59059593  0.06048408    -0.21200
C218        C  0.99033152  0.59174537  0.06092998    -0.21200
C219        C  0.00610075  0.59299688  0.95013277    -0.21200
C220        C  0.98754609  0.59451116  0.95061326    -0.21200
C221        C  0.05305220  0.57362136  0.01300253    -0.22300
C222        C  0.05242041  0.57336271  0.99446836    -0.22300
C223        C  0.94183030  0.58011001  0.01594708    -0.22300
C224        C  0.94124050  0.58083337  0.99735253    -0.22300
C225        C  0.03131651  0.58194499  0.03712746    -0.17600
C226        C  0.96591997  0.58483817  0.03898398    -0.17600
C227        C  0.96392596  0.58710852  0.97332350    -0.17600
C228        C  0.02928791  0.58169823  0.97161512    -0.17600
H229        H  0.01781575  0.59203991  0.07200875     0.15300
H230        H  0.98222250  0.59420998  0.07286278     0.15300
H231        H  0.01459696  0.59534712  0.93843471     0.15300
H232        H  0.97896911  0.59826955  0.93934412     0.15300
H233        H  0.06446385  0.56955660  0.02124180     0.13600
H234        H  0.06324794  0.56906313  0.98561610     0.13600
H235        H  0.93062867  0.57672638  0.02476389     0.13600
H236        H  0.92951216  0.57808126  0.98900639     0.13600
H237        H  0.99776515  0.57905904  0.01990048     0.26800
H238        H  0.99658455  0.57829253  0.99014808     0.26800
N239        N  0.62446996  0.97509202  0.02426874    -0.35900
N240        N  0.62404208  0.94586927  0.99813668    -0.56500
N241        N  0.61967113  0.97126035  0.96878444    -0.35900
N242        N  0.61951019  0.00048477  0.99480814    -0.56500
C243        C  0.62105975  0.96089407  0.03533480     0.27700
C244        C  0.62034114  0.99028703  0.03353851     0.27700
C245        C  0.61573442  0.95554183  0.96035651     0.27700
C246        C  0.61241935  0.98466953  0.95869759     0.27700
C247        C  0.62721051  0.93623875  0.01331402     0.36300
C248        C  0.62636281  0.93439747  0.98416184     0.36300
C249        C  0.62296112  0.01232770  0.00824475     0.36300
C250        C  0.61937895  0.01018311  0.97933444     0.36300
C251        C  0.61530977  0.96719077  0.05204384    -0.21200
C252        C  0.61492517  0.98576851  0.05092945    -0.21200
C253        C  0.60618383  0.95900481  0.94455770    -0.21200
C254        C  0.60417116  0.97744260  0.94346530    -0.21200
C255        C  0.63181123  0.91858734  0.00898041    -0.22300
C256        C  0.63140679  0.91745173  0.99045723    -0.22300
C257        C  0.62519941  0.02962402  0.00127705    -0.22300
C258        C  0.62289806  0.02826476  0.98290702    -0.22300
C259        C  0.62330232  0.94242967  0.03089016    -0.17600
C260        C  0.62168736  0.00813309  0.02679413    -0.17600
C261        C  0.61378491  0.00329522  0.96248137    -0.17600
C262        C  0.62109802  0.93821298  0.96623766    -0.17600
H263        H  0.61167721  0.95922902  0.06380460     0.15300
H264        H  0.61090334  0.99488751  0.06164224     0.15300
H265        H  0.60124824  0.94926821  0.93478523     0.15300
H266        H  0.59738339  0.98469491  0.93269337     0.15300
H267        H  0.63439543  0.90750720  0.01821898     0.13600
H268        H  0.63355650  0.90529885  0.98258558     0.13600
H269        H  0.62753072  0.04201860  0.00872748     0.13600
H270        H  0.62309048  0.03939453  0.97336705     0.13600
H271        H  0.63062476  0.97459362  0.01164482     0.26800
H272        H  0.62835184  0.97283268  0.97975496     0.26800
N273        N  0.97444749  0.35991694  0.99730412    -0.35900
N274        N  0.00243458  0.35391949  0.02346141    -0.56500
N275        N  0.02940097  0.35384832  0.99486195    -0.35900
N276        N  0.00148173  0.36034638  0.96869027    -0.56500
C277        C  0.96535983  0.36368082  0.01270679     0.27700
C278        C  0.96491371  0.36711234  0.98349200     0.27700
C279        C  0.03993684  0.35612850  0.00962174     0.27700
C280        C  0.03929547  0.35893690  0.98032314     0.27700
C281        C  0.98788737  0.35129245  0.03418460     0.36300
C282        C  0.01700774  0.34862479  0.03306092     0.36300
C283        C  0.98625296  0.35965854  0.95870865     0.36300
C284        C  0.01520580  0.35648599  0.95733655     0.36300
C285        C  0.94970692  0.37317299  0.00860800    -0.21200
C286        C  0.94941738  0.37533306  0.99011406    -0.21200
C287        C  0.05682313  0.36252815  0.00437264    -0.21200
C288        C  0.05639773  0.36432841  0.98584119    -0.21200
C289        C  0.99320645  0.34402258  0.05064858    -0.22300
C290        C  0.01173623  0.34241861  0.04996481    -0.22300
C291        C  0.99027043  0.35524507  0.94092061    -0.22300
C292        C  0.00871737  0.35332401  0.94003437    -0.22300
C293        C  0.97045231  0.35794809  0.03020889    -0.17600
C294        C  0.96918712  0.36515484  0.96501213    -0.17600
C295        C  0.03357150  0.35760839  0.96216494    -0.17600
C296        C  0.03502624  0.35151782  0.02753089    -0.17600
H297        H  0.93948547  0.37790915  0.01794430     0.15300
H298        H  0.93890439  0.38200749  0.98239843     0.15300
H299        H  0.06834316  0.36539896  0.01296300     0.15300
H300        H  0.06747893  0.36882825  0.97737082     0.15300
H301        H  0.98472894  0.34104657  0.06221861     0.13600
H302        H  0.02039548  0.33782355  0.06085366     0.13600
H303        H  0.98095890  0.35420736  0.92965274     0.13600
H304        H  0.01649646  0.35037781  0.92799302     0.13600
H305        H  0.98535425  0.35114858  0.99602264     0.26800
H306        H  0.01696386  0.34723004  0.99454393     0.26800
N307        N  0.36874113  0.99503506  0.00625711    -0.35900
N308        N  0.36586806  0.96652344  0.03344925    -0.56500
N309        N  0.37342065  0.93928544  0.00647304    -0.35900
N310        N  0.37714653  0.96751308  0.97939420    -0.56500
C311        C  0.36994219  0.00489693  0.02161870     0.27700
C312        C  0.37562368  0.00534981  0.99274655     0.27700
C313        C  0.37585751  0.92941552  0.02170457     0.27700
C314        C  0.38053358  0.92969575  0.99264866     0.27700
C315        C  0.36128037  0.98085920  0.04375323     0.36300
C316        C  0.36394288  0.95168010  0.04397568     0.36300
C317        C  0.37564994  0.98211619  0.96850666     0.36300
C318        C  0.37734993  0.95290909  0.96843920     0.36300
C319        C  0.37705653  0.02186588  0.01764822    -0.21200
C320        C  0.38053004  0.02217493  0.99942210    -0.21200
C321        C  0.38430851  0.91321696  0.01740765    -0.21200
C322        C  0.38695841  0.91326387  0.99904130    -0.21200
C323        C  0.35603915  0.97505560  0.06082197    -0.22300
C324        C  0.35771107  0.95655157  0.06095496    -0.22300
C325        C  0.37484872  0.97679390  0.95054593    -0.22300
C326        C  0.37593582  0.95824450  0.95050095    -0.22300
C327        C  0.36512324  0.99903355  0.03921564    -0.17600
C328        C  0.37729320  0.00015915  0.97445615    -0.17600
C329        C  0.38074300  0.93506444  0.97430953    -0.17600
C330        C  0.37005832  0.93421735  0.03929242    -0.17600
H331        H  0.37967510  0.03287731  0.02694394     0.15300
H332        H  0.38633316  0.03341127  0.99199418     0.15300
H333        H  0.38792465  0.90231206  0.02650474     0.15300
H334        H  0.39304801  0.90244152  0.99131012     0.15300
H335        H  0.35236997  0.98339110  0.07227669     0.13600
H336        H  0.35545914  0.94778023  0.07248435     0.13600
H337        H  0.37418947  0.98541530  0.93870960     0.13600
H338        H  0.37624989  0.94971283  0.93861026     0.13600
H339        H  0.36252658  0.98247831  0.00485594     0.26800
H340        H  0.36581144  0.95101674  0.00523576     0.26800
N341        N  0.00522269  0.99393623  0.60782084    -0.35900
N342        N  0.97817934  0.96572556  0.61308366    -0.56500
N343        N  0.00661230  0.93907807  0.61243523    -0.35900
N344        N  0.03386938  0.96735422  0.60870616    -0.56500
C345        C  0.99051503  0.00391991  0.61203036     0.27700
C346        C  0.01989039  0.00475512  0.60976287     0.27700
C347        C  0.99249453  0.92868855  0.61775701     0.27700
C348        C  0.02189262  0.92963866  0.61575897     0.27700
C349        C  0.96710343  0.97981864  0.60965799     0.36300
C350        C  0.96786121  0.95067678  0.61178419     0.36300
C351        C  0.04345999  0.98190541  0.60304816     0.36300
C352        C  0.04415821  0.95266532  0.60525486     0.36300
C353        C  0.99586083  0.02130577  0.61667812    -0.21200
C354        C  0.01444443  0.02180166  0.61536142    -0.21200
C355        C  0.99883953  0.91245253  0.62467212    -0.21200
C356        C  0.01745334  0.91308668  0.62351073    -0.21200
C357        C  0.94959581  0.97375062  0.60661257    -0.22300
C358        C  0.95008298  0.95525647  0.60790160    -0.22300
C359        C  0.06002785  0.97647696  0.59620065    -0.22300
C360        C  0.06045901  0.95791985  0.59756226    -0.22300
C361        C  0.97237014  0.99816118  0.61019097    -0.17600
C362        C  0.03778106  0.00006477  0.60493521    -0.17600
C363        C  0.03937623  0.93467917  0.60980367    -0.17600
C364        C  0.97409640  0.93289519  0.61484243    -0.17600
H365        H  0.98723697  0.03255793  0.62028906     0.15300
H366        H  0.02293494  0.03352825  0.61769103     0.15300
H367        H  0.99086559  0.90115695  0.62956461     0.15300
H368        H  0.02663266  0.90229809  0.62721619     0.15300
H369        H  0.93770405  0.98180673  0.60378581     0.13600
H370        H  0.93863192  0.94623934  0.60626134     0.13600
H371        H  0.07067862  0.98499740  0.59081533     0.13600
H372        H  0.07153126  0.94929564  0.59343555     0.13600
H373        H  0.00501646  0.98134038  0.60158254     0.26800
H374        H  0.00575620  0.95062917  0.60445652     0.26800
N375        N  0.02358999  0.97270196  0.39827772    -0.35900
N376        N  0.99264332  0.99678379  0.40088056    -0.56500
N377        N  0.96828164  0.96598858  0.39564844    -0.35900
N378        N  0.99922638  0.94185100  0.39463628    -0.56500
C379        C  0.03198555  0.98831164  0.40299523     0.27700
C380        C  0.03543553  0.95901226  0.40110055     0.27700
C381        C  0.95634564  0.97885791  0.40074762     0.27700
C382        C  0.95979873  0.94982345  0.39724957     0.27700
C383        C  0.00586252  0.00936682  0.39944911     0.36300
C384        C  0.97681468  0.00568237  0.39895695     0.36300
C385        C  0.01515605  0.93306766  0.39301543     0.36300
C386        C  0.98608829  0.92963715  0.39098949     0.36300
C387        C  0.04955846  0.98456219  0.40838915    -0.21200
C388        C  0.05170062  0.96609517  0.40730181    -0.21200
C389        C  0.93992566  0.97084053  0.40509754    -0.21200
C390        C  0.94210808  0.95252846  0.40293575    -0.21200
C391        C  0.99838580  0.02635900  0.39675259    -0.22300
C392        C  0.97996068  0.02402577  0.39648531    -0.22300
C393        C  0.01211670  0.91518465  0.38815761    -0.22300
C394        C  0.99370158  0.91300926  0.38690874    -0.22300
C395        C  0.02451236  0.00593349  0.40182184    -0.17600
C396        C  0.03223917  0.94035784  0.39775024    -0.17600
C397        C  0.96737690  0.93267435  0.39342908    -0.17600
C398        C  0.95954251  0.99772025  0.40082782    -0.17600
H399        H  0.05977472  0.99413511  0.41274540     0.15300
H400        H  0.06390641  0.95873392  0.41063996     0.15300
H401        H  0.92762848  0.97748838  0.40942002     0.15300
H402        H  0.93178745  0.94237084  0.40527313     0.15300
H403        H  0.00545153  0.03914911  0.39549361     0.13600
H404        H  0.97000578  0.03464841  0.39495909     0.13600
H405        H  0.02209626  0.90464153  0.38633049     0.13600
H406        H  0.98669428  0.90047673  0.38393604     0.13600
H407        H  0.01115700  0.97169906  0.39186118     0.26800
H408        H  0.98086204  0.96825064  0.38984513     0.26800
C409        C  0.63206960  0.87144510  0.65448714     0.80900
N410        N  0.63679415  0.88917162  0.65641829    -0.77400
C411        C  0.62866414  0.90226741  0.64631612     0.83400
N412        N  0.61570116  0.89728380  0.63419210    -0.77300
C413        C  0.61083010  0.87968511  0.63224008     0.83400
N414        N  0.61927010  0.86679664  0.64215261    -0.79100
C415        C  0.65209067  0.06637459  0.64776932     0.80900
N416        N  0.63932185  0.07198833  0.63567573    -0.77400
C417        C  0.63069940  0.05982066  0.62488290     0.83400
N418        N  0.63496079  0.04204672  0.62616295    -0.77300
C419        C  0.64736963  0.03623026  0.63835517     0.83400
N420        N  0.65561858  0.04838627  0.64942649    -0.79100
C421        C  0.89811662  0.62159519  0.63996311     0.80900
N422        N  0.91570501  0.62290848  0.64541851    -0.77400
C423        C  0.92902898  0.61395365  0.63641177     0.83400
N424        N  0.92459525  0.60360762  0.62194693    -0.77300
C425        C  0.90712841  0.60184169  0.61657219     0.83400
N426        N  0.89404184  0.61090382  0.62556468    -0.79100
C427        C  0.09362307  0.61876120  0.65387813     0.80900
N428        N  0.07589695  0.62348844  0.65582912    -0.77400
C429        C  0.06301145  0.61602556  0.64499038     0.83400
N430        N  0.06776592  0.60322022  0.63273738    -0.77300
C431        C  0.08530237  0.59825780  0.63079521     0.83400
N432        N  0.09820352  0.60652278  0.64093577    -0.79100
C433        C  0.65033895  0.60577794  0.89908613     0.80900
N434        N  0.63605235  0.59530861  0.89394852    -0.77400
C435        C  0.62480504  0.58800645  0.90656714     0.83400
N436        N  0.62820920  0.59086344  0.92438150    -0.77300
C437        C  0.64253433  0.60116233  0.92972605     0.83400
N438        N  0.65330939  0.60886734  0.91698173    -0.79100
C439        C  0.64127262  0.63245504  0.09317492     0.80900
N440        N  0.62904244  0.61993839  0.09883686    -0.77400
C441        C  0.61982046  0.60980772  0.08669193     0.83400
N442        N  0.62323228  0.61193742  0.06884074    -0.77300
C443        C  0.63579619  0.62396601  0.06291547     0.83400
N444        N  0.64496909  0.63423183  0.07517770    -0.79100
C445        C  0.89778528  0.61305373  0.35169691     0.80900
N446        N  0.91540357  0.61417008  0.34643240    -0.77400
C447        C  0.92823224  0.60412889  0.35492994     0.83400
N448        N  0.92336646  0.59281676  0.36851419    -0.77300
C449        C  0.90587738  0.59146548  0.37373214     0.83400
N450        N  0.89311233  0.60149054  0.36524663    -0.79100
C451        C  0.09356374  0.60418062  0.34403341     0.80900
N452        N  0.09875627  0.59385989  0.35828963    -0.77400
C453        C  0.08632103  0.58475073  0.36822898     0.83400
N454        N  0.06848819  0.58683175  0.36451533    -0.77300
C455        C  0.06299949  0.59767778  0.35069541     0.83400
N456        N  0.07564310  0.60616554  0.34036975    -0.79100
C457        C  0.64429300  0.87520436  0.35403644     0.80900
N458        N  0.62989486  0.86994921  0.36424543    -0.77400
C459        C  0.61976855  0.88231448  0.37318753     0.83400
N460        N  0.62400456  0.90012191  0.37195477    -0.77300
C461        C  0.63812362  0.90561333  0.36159711     0.83400
N462        N  0.64862076  0.89308963  0.35322336    -0.79100
C463        C  0.65232232  0.06927175  0.35901909     0.80900
N464        N  0.63871686  0.07462433  0.37015791    -0.77400
C465        C  0.62993146  0.06238802  0.38065929     0.83400
N466        N  0.63525480  0.04486771  0.38049460    -0.77300
C467        C  0.64912928  0.03933286  0.36987236     0.83400
N468        N  0.65749290  0.05158223  0.35889987    -0.79100
C469        C  0.90511232  0.31503419  0.64926607     0.80900
N470        N  0.89997863  0.32906163  0.63862711    -0.77400
C471        C  0.91235215  0.33825248  0.62878607     0.83400
N472        N  0.92990567  0.33326106  0.62932374    -0.77300
C473        C  0.93547760  0.31950008  0.64015196     0.83400
N474        N  0.92298228  0.31058025  0.65036200    -0.79100
C475        C  0.09971019  0.30965273  0.63243802     0.80900
N476        N  0.08273806  0.30302649  0.63523316    -0.77400
C477        C  0.06845029  0.31047123  0.62637909     0.83400
N478        N  0.07107154  0.32496330  0.61545970    -0.77300
C479        C  0.08784643  0.33176600  0.61285655     0.83400
N480        N  0.10222021  0.32376714  0.62092857    -0.79100
C481        C  0.35772998  0.87093275  0.65749179     0.80900
N482        N  0.35595882  0.88870062  0.66201164    -0.77400
C483        C  0.36636476  0.90153171  0.65385483     0.83400
N484        N  0.37818482  0.89648864  0.64082832    -0.77300
C485        C  0.38045681  0.87885256  0.63660385     0.83400
N486        N  0.37025923  0.86608643  0.64496881    -0.79100
C487        C  0.34832612  0.06472493  0.64776659     0.80900
N488        N  0.34463368  0.04711483  0.65140695    -0.77400
C489        C  0.35291478  0.03374833  0.64203553     0.83400
N490        N  0.36581662  0.03794589  0.62965357    -0.77300
C491        C  0.36999070  0.05550253  0.62621838     0.83400
N492        N  0.36121474  0.06876129  0.63528617    -0.79100
C493        C  0.65053890  0.33263806  0.90118699     0.80900
N494        N  0.63685279  0.34324112  0.89503820    -0.77400
C495        C  0.62519089  0.35112900  0.90681412     0.83400
N496        N  0.62745423  0.34861644  0.92490600    -0.77300
C497        C  0.64118847  0.33815596  0.93124470     0.83400
N498        N  0.65248432  0.33003598  0.91927038    -0.79100
C499        C  0.66107138  0.32025825  0.09379765     0.80900
N500        N  0.66139615  0.31534803  0.07605076    -0.77400
C501        C  0.64855574  0.32150777  0.06442512     0.83400
N502        N  0.63565920  0.33310553  0.07046135    -0.77300
C503        C  0.63535562  0.33821880  0.08808519     0.83400
N504        N  0.64800652  0.33172014  0.09964186    -0.79100
C505        C  0.34342551  0.60406755  0.90476899     0.80900
N506        N  0.35488497  0.59156851  0.89773298    -0.77400
C507        C  0.36413069  0.58017995  0.90876717     0.83400
N508        N  0.36253043  0.58185457  0.92696299    -0.77300
C509        C  0.35144239  0.59458626  0.93421059     0.83400
N510        N  0.34211920  0.60584703  0.92303141    -0.79100
C511        C  0.35375500  0.60963647  0.09961551     0.80900
N512        N  0.36673160  0.59825998  0.10600652    -0.77400
C513        C  0.37682156  0.58834129  0.09434008     0.83400
N514        N  0.37369429  0.58966228  0.07634937    -0.77300
C515        C  0.36000045  0.59995160  0.06987220     0.83400
N516        N  0.35023398  0.61030656  0.08152350    -0.79100
C517        C  0.33421803  0.86795317  0.35572276     0.80900
N518        N  0.33239570  0.88615411  0.35351233    -0.77400
C519        C  0.34251546  0.89775334  0.36355653     0.83400
N520        N  0.35462000  0.89107676  0.37561496    -0.77300
C521        C  0.35707315  0.87302978  0.37744744     0.83400
N522        N  0.34690492  0.86145883  0.36741846    -0.79100
C523        C  0.34821552  0.06274621  0.35743829     0.80900
N524        N  0.34476543  0.04464984  0.35657925    -0.77400
C525        C  0.35379523  0.03273348  0.36741483     0.83400
N526        N  0.36659705  0.03909049  0.37892388    -0.77300
C527        C  0.37016563  0.05700917  0.37993336     0.83400
N528        N  0.36094281  0.06868899  0.36931967    -0.79100
C529        C  0.90872808  0.30765546  0.36106350     0.80900
N530        N  0.92657830  0.30555121  0.35687032    -0.77400
C531        C  0.93935987  0.31596060  0.36516396     0.83400
N532        N  0.93413452  0.32848164  0.37746643    -0.77300
C533        C  0.91645875  0.33107844  0.38127573     0.83400
N534        N  0.90379004  0.32049252  0.37326033    -0.79100
C535        C  0.10385590  0.32714370  0.34943250     0.80900
N536        N  0.10914142  0.33995829  0.36157030    -0.77400
C537        C  0.09678011  0.34981747  0.37080072     0.83400
N538        N  0.07888724  0.34690245  0.36797909    -0.77300
C539        C  0.07323575  0.33454263  0.35562543     0.83400
N540        N  0.08580251  0.32440515  0.34677960    -0.79100
C541        C  0.35371796  0.32163544  0.90317757     0.80900
N542        N  0.36370937  0.33650790  0.89905984    -0.77400
C543        C  0.37332247  0.34522165  0.91202516     0.83400
N544        N  0.37377750  0.33833802  0.92905477    -0.77300
C545        C  0.36408301  0.32326139  0.93334547     0.83400
N546        N  0.35373617  0.31512223  0.92042471    -0.79100
C547        C  0.36357153  0.31663230  0.09701914     0.80900
N548        N  0.36080633  0.31467388  0.07897645    -0.77400
C549        C  0.37052012  0.32454810  0.06687507     0.83400
N550        N  0.38370132  0.33588261  0.07295087    -0.77300
C551        C  0.38665538  0.33783409  0.09100619     0.83400
N552        N  0.37668623  0.32807840  0.10293253    -0.79100
C553        C  0.16200798  0.36301844  0.13254893     0.80900
N554        N  0.16633534  0.38080223  0.13380090    -0.77400
C555        C  0.15825494  0.39321561  0.12296523     0.83400
N556        N  0.14567689  0.38761702  0.11077266    -0.77300
C557        C  0.14136583  0.36979561  0.10929516     0.83400
N558        N  0.14917402  0.35760818  0.12057922    -0.79100
C559        C  0.14584285  0.55478806  0.15048503     0.80900
N560        N  0.13255380  0.55911462  0.13861065    -0.77400
C561        C  0.12320854  0.54589557  0.13006739     0.83400
N562        N  0.12735819  0.52834216  0.13310797    -0.77300
C563        C  0.14057098  0.52383896  0.14500058     0.83400
N564        N  0.15024104  0.53713037  0.15332371    -0.79100
C565        C  0.40746974  0.10757823  0.15599995     0.80900
N566        N  0.42578881  0.10909292  0.15696119    -0.77400
C567        C  0.43656560  0.09925002  0.14574940     0.83400
N568        N  0.42881491  0.08818168  0.13327425    -0.77300
C569        C  0.41058069  0.08615238  0.13263678     0.83400
N570        N  0.40000906  0.09590278  0.14393082    -0.79100
C571        C  0.60008689  0.12746074  0.13856126     0.80900
N572        N  0.60668701  0.11683269  0.12515575    -0.77400
C573        C  0.59520655  0.10819640  0.11378933     0.83400
N574        N  0.57713952  0.10962994  0.11625968    -0.77300
C575        C  0.57028196  0.12001661  0.12968226     0.83400
N576        N  0.58186072  0.12883508  0.14106412    -0.79100
C577        C  0.39581360  0.11320784  0.85547053     0.80900
N578        N  0.41375540  0.11675697  0.85299533    -0.77400
C579        C  0.42650982  0.10708165  0.86206312     0.83400
N580        N  0.42121155  0.09443339  0.87422011    -0.77300
C581        C  0.40350813  0.09034437  0.87633476     0.83400
N582        N  0.39085213  0.09967581  0.86691067    -0.79100
C583        C  0.59130459  0.12657163  0.85604051     0.80900
N584        N  0.59634786  0.11319407  0.86765909    -0.77400
C585        C  0.58374255  0.10295914  0.87617306     0.83400
N586        N  0.56601570  0.10591061  0.87293234    -0.77300
C587        C  0.56066837  0.11922631  0.86150232     0.83400
N588        N  0.57335601  0.12948867  0.85291625    -0.79100
C589        C  0.40283581  0.81311160  0.14691276     0.80900
N590        N  0.42109827  0.81081471  0.14863259    -0.77400
C591        C  0.43272855  0.82185081  0.13945177     0.83400
N592        N  0.42582505  0.83513272  0.12881300    -0.77300
C593        C  0.40779669  0.83727440  0.12670020     0.83400
N594        N  0.39631511  0.82632600  0.13588714    -0.79100
C595        C  0.59882426  0.82278452  0.14271251     0.80900
N596        N  0.60491797  0.83532990  0.13066182    -0.77400
C597        C  0.59320982  0.84505827  0.12046727     0.83400
N598        N  0.57517358  0.84212657  0.12209563    -0.77300
C599        C  0.56881960  0.82908870  0.13339687     0.83400
N600        N  0.58067513  0.81990104  0.14409819    -0.79100
C601        C  0.86181189  0.37264946  0.15449554     0.80900
N602        N  0.86016031  0.39062088  0.15803743    -0.77400
C603        C  0.86890693  0.40314445  0.14774506     0.83400
N604        N  0.87924307  0.39753172  0.13369692    -0.77300
C605        C  0.88104711  0.37967244  0.12996356     0.83400
N606        N  0.87261361  0.36725794  0.14058777    -0.79100
C607        C  0.85103785  0.56727517  0.15597633     0.80900
N608        N  0.84661875  0.54949675  0.15824226    -0.77400
C609        C  0.85591305  0.53648117  0.14923398     0.83400
N610        N  0.86987403  0.54114136  0.13832263    -0.77300
C611        C  0.87491211  0.55865655  0.13663549     0.83400
N612        N  0.86560738  0.57163020  0.14561418    -0.79100
C613        C  0.84080893  0.11193506  0.41130515     0.80900
N614        N  0.83646006  0.11316968  0.42915255    -0.77400
C615        C  0.84320881  0.10105466  0.44127050     0.83400
N616        N  0.85504206  0.08832195  0.43552716    -0.77300
C617        C  0.85992968  0.08732994  0.41791878     0.83400
N618        N  0.85273903  0.09908065  0.40583078    -0.79100
C619        C  0.84835332  0.10731174  0.60548589     0.80900
N620        N  0.86132183  0.09501651  0.60980202    -0.77400
C621        C  0.86909003  0.08488181  0.59664237     0.83400
N622        N  0.86429841  0.08748964  0.57914430    -0.77300
C623        C  0.85160653  0.09994964  0.57468704     0.83400
N624        N  0.84326988  0.10952270  0.58794329    -0.79100
C625        C  0.14858872  0.82222299  0.39969307     0.80900
N626        N  0.13578802  0.83512722  0.39666729    -0.77400
C627        C  0.12876204  0.84476231  0.41064728     0.83400
N628        N  0.13475268  0.84154984  0.42769664    -0.77300
C629        C  0.14756504  0.82882128  0.43095576     0.83400
N630        N  0.15406191  0.81882605  0.41696496    -0.79100
C631        C  0.15269157  0.81565049  0.59432609     0.80900
N632        N  0.13981051  0.82785729  0.59915677    -0.77400
C633        C  0.13025603  0.83692114  0.58638354     0.83400
N634        N  0.13301848  0.83319157  0.56864647    -0.77300
C635        C  0.14560205  0.82082925  0.56365679     0.83400
N636        N  0.15584926  0.81262132  0.57649113    -0.79100
C637        C  0.84739370  0.37855080  0.85469397     0.80900
N638        N  0.84434613  0.39635538  0.85115277    -0.77400
C639        C  0.85363180  0.40931106  0.86034182     0.83400
N640        N  0.86580620  0.40440315  0.87310247    -0.77300
C641        C  0.86946664  0.38674659  0.87614411     0.83400
N642        N  0.86021380  0.37384254  0.86699377    -0.79100
C643        C  0.85925814  0.57378577  0.84573678     0.80900
N644        N  0.86956152  0.57867029  0.86016694    -0.77400
C645        C  0.87671856  0.56589344  0.87120186     0.83400
N646        N  0.87384071  0.54811309  0.86764169    -0.77300
C647        C  0.86333360  0.54309514  0.85340331     0.83400
N648        N  0.85607164  0.55597267  0.84251655    -0.79100
C649        C  0.85542978  0.81236738  0.40843925     0.80900
N650        N  0.86939138  0.82310314  0.40309954    -0.77400
C651        C  0.88091604  0.83020344  0.41546870     0.83400
N652        N  0.87834453  0.82675595  0.43323056    -0.77300
C653        C  0.86479349  0.81575721  0.43887448     0.83400
N654        N  0.85317530  0.80860593  0.42639838    -0.79100
C655        C  0.84513535  0.82957162  0.60150988     0.80900
N656        N  0.85781916  0.84129491  0.60781175    -0.77400
C657        C  0.86849018  0.85068344  0.59617894     0.83400
N658        N  0.86641007  0.84835155  0.57807935    -0.77300
C659        C  0.85396462  0.83647100  0.57160708     0.83400
N660        N  0.84356156  0.82694418  0.58339688    -0.79100
C661        C  0.40180156  0.81275389  0.86677486     0.80900
N662        N  0.41964452  0.81017025  0.86307186    -0.77400
C663        C  0.43239382  0.82058515  0.87124986     0.83400
N664        N  0.42738913  0.83296043  0.88375873    -0.77300
C665        C  0.40969167  0.83564567  0.88740885     0.83400
N666        N  0.39693693  0.82588837  0.87859812    -0.79100
C667        C  0.59604018  0.81137119  0.86350243     0.80900
N668        N  0.60259560  0.82508695  0.87378007    -0.77400
C669        C  0.59123903  0.83492990  0.88418147     0.83400
N670        N  0.57324445  0.83161030  0.88360032    -0.77300
C671        C  0.56651579  0.81786587  0.87352672     0.83400
N672        N  0.57799156  0.80784857  0.86325145    -0.79100
O673        O  0.25906301  0.72089670  0.78990260    -0.87700
C674        C  0.28794451  0.72411748  0.74294398     0.88400
Mg675      Mg  0.24187134  0.69833733  0.79567319     1.58100
O676        O  0.24981070  0.75241826  0.74442381    -0.87400
O677        O  0.25709035  0.75028687  0.78669398    -0.74700
C678        C  0.19240371  0.68580738  0.72162489     0.93400
O679        O  0.27695595  0.68853200  0.76688609    -0.74500
O680        O  0.19993624  0.67720669  0.73450209    -0.82000
Mg681      Mg  0.28612910  0.71454360  0.78122441     1.58000
C682        C  0.21561906  0.75506331  0.69957476     0.93300
O683        O  0.29857315  0.73890604  0.79602238    -0.80300
H684        H  0.23605007  0.77255843  0.75602540    -0.05600
C685        C  0.24267112  0.70464455  0.71767193     0.88300
O686        O  0.21680058  0.71390714  0.78573055    -0.74800
O687        O  0.28149772  0.73017866  0.75711143    -0.87600
O688        O  0.23203123  0.75760166  0.70410080    -0.80400
C689        C  0.28610433  0.77310669  0.72025626     0.93500
C690        C  0.30353741  0.75501299  0.79220853     0.93300
Mg691      Mg  0.21074701  0.72613493  0.73245584     1.58000
O692        O  0.19674598  0.70211657  0.71801404    -0.80300
O693        O  0.22034375  0.75200126  0.74675041    -0.74600
O694        O  0.28917282  0.76936347  0.73681452    -0.80400
O695        O  0.29142634  0.69739546  0.80631215    -0.82100
O696        O  0.20784815  0.67233466  0.77599039    -0.80400
C697        C  0.23553972  0.75964927  0.74916689     0.87700
O698        O  0.21553587  0.71045128  0.75634648    -0.87600
O699        O  0.23776590  0.71945563  0.72362474    -0.87700
O700        O  0.23996354  0.69008799  0.72639211    -0.74700
Mg701      Mg  0.27298014  0.75773227  0.76097658     1.58000
O702        O  0.27333737  0.76561611  0.71147284    -0.82100
H703        H  0.24640423  0.73652092  0.80794876    -0.05800
O704        O  0.24743228  0.68818782  0.76889367    -0.87400
H705        H  0.26129673  0.66796008  0.75753904    -0.05600
H706        H  0.19653050  0.72386326  0.77008904    -0.05800
C707        C  0.26175436  0.68090684  0.76432852     0.87700
C708        C  0.25404071  0.73582097  0.79549708     0.88300
C709        C  0.20898302  0.71622234  0.77058991     0.88400
H710        H  0.25002021  0.70415111  0.70503899    -0.05800
O711        O  0.28010600  0.72627325  0.72779433    -0.74800
Mg712      Mg  0.22421064  0.68300099  0.75214834     1.58000
H713        H  0.30030619  0.71633591  0.74353562    -0.05800
C714        C  0.28179760  0.68522374  0.81384407     0.93300
O715        O  0.22334681  0.67474808  0.80172822    -0.82100
C716        C  0.21022747  0.66839198  0.79254953     0.93400
O717        O  0.29716144  0.76335400  0.77861900    -0.82000
Mg718      Mg  0.25512558  0.74193260  0.71781460     1.58200
O719        O  0.26525293  0.68273837  0.80954919    -0.80400
O720        O  0.20604505  0.74300386  0.70736728    -0.82100
O721        O  0.77385363  0.72056719  0.73114119    -0.87700
C722        C  0.72362481  0.72303584  0.70836135     0.88400
Mg723      Mg  0.78284088  0.69761686  0.74629356     1.58100
O724        O  0.72859493  0.74900601  0.74791797    -0.87400
O725        O  0.76987942  0.74961541  0.73537237    -0.74700
C726        C  0.71554321  0.67755552  0.80263893     0.93400
O727        O  0.74997174  0.68811113  0.71473106    -0.74500
O728        O  0.72864578  0.67029915  0.79421400    -0.82000
Mg729      Mg  0.76206650  0.71508102  0.70507156     1.58000
C730        C  0.68814929  0.74687085  0.78748285     0.93300
O731        O  0.77420025  0.74061832  0.69211792    -0.80300
H732        H  0.74043196  0.76909407  0.76167614    -0.05600
C733        C  0.70524363  0.69932950  0.75518552     0.88300
O734        O  0.77527692  0.71168630  0.77303337    -0.74800
O735        O  0.73825863  0.72939270  0.71342793    -0.87600
O736        O  0.69034558  0.75068037  0.77080158    -0.80400
C737        C  0.69941993  0.76993216  0.71565206     0.93500
C738        C  0.76987053  0.75701267  0.68897608     0.93300
Mg739      Mg  0.72247210  0.71975002  0.78640267     1.58000
O740        O  0.71065453  0.69381257  0.79955017    -0.80300
O741        O  0.73408668  0.74712508  0.77696104    -0.74600
O742        O  0.71575230  0.76736973  0.71080463    -0.80400
O743        O  0.78688873  0.69935768  0.69592990    -0.82100
O744        O  0.76942992  0.66902917  0.78099620    -0.80400
C745        C  0.73444252  0.75573330  0.76207049     0.87700
O746        O  0.74654738  0.70606091  0.77794961    -0.87600
O747        O  0.71091655  0.71426095  0.76016743    -0.87700
O748        O  0.71495670  0.68520476  0.75625350    -0.74700
Mg749      Mg  0.74217022  0.75656251  0.72319004     1.58000
O750        O  0.69238685  0.76167735  0.72904247    -0.82100
H751        H  0.79286219  0.73630962  0.74227925    -0.05800
O752        O  0.75609817  0.68626516  0.74366215    -0.87400
H753        H  0.74355570  0.66636316  0.73027004    -0.05600
H754        H  0.76178789  0.72003311  0.79542690    -0.05800
C755        C  0.74982187  0.67958759  0.72966500     0.87700
C756        C  0.77953646  0.73544757  0.73628710     0.88300
C757        C  0.76114576  0.71271783  0.78278073     0.88400
H758        H  0.69187976  0.69836257  0.74929408    -0.05800
O759        O  0.70951555  0.72387598  0.71812911    -0.74800
Mg760      Mg  0.74290630  0.67881063  0.76838378     1.58000
H761        H  0.72294541  0.71609687  0.69550749    -0.05800
C762        C  0.79571130  0.68676415  0.70364506     0.93300
O763        O  0.79288247  0.67366739  0.76293643    -0.82100
C764        C  0.78580062  0.66606338  0.77670388     0.93400
O765        O  0.75700731  0.76481327  0.69733873    -0.82000
Mg766      Mg  0.70194699  0.73737203  0.74508376     1.58200
O767        O  0.79372680  0.68362869  0.72053608    -0.80400
O768        O  0.69740149  0.73470063  0.79538679    -0.82100
O769        O  0.74794867  0.75169196  0.26663435    -0.87700
C770        C  0.75143589  0.70305945  0.29248796     0.88400
Mg771      Mg  0.72465645  0.75990630  0.25130696     1.58100
O772        O  0.77663886  0.70621307  0.25241157    -0.87400
O773        O  0.77701999  0.74808910  0.26237445    -0.74700
C774        C  0.70537241  0.69003466  0.19827087     0.93400
O775        O  0.71628466  0.72824897  0.28465556    -0.74500
O776        O  0.69746199  0.70278352  0.20665587    -0.82000
Mg777      Mg  0.74318694  0.74123006  0.29343375     1.58000
C778        C  0.77483419  0.66392226  0.21528925     0.93300
O779        O  0.76884376  0.75436255  0.30571981    -0.80300
H780        H  0.79636547  0.71770234  0.23787777    -0.05600
C781        C  0.72694908  0.68209726  0.24675757     0.88300
O782        O  0.73830271  0.75117308  0.22478915    -0.74800
O783        O  0.75777512  0.71734897  0.28648568    -0.87600
O784        O  0.77847931  0.66702994  0.23186174    -0.80400
C785        C  0.79842563  0.67892346  0.28556839     0.93500
C786        C  0.78549781  0.75069111  0.30851892     0.93300
Mg787      Mg  0.74717248  0.69800427  0.21456714     1.58000
O788        O  0.72171082  0.68564080  0.20159277    -0.80300
O789        O  0.77428945  0.71045318  0.22322679    -0.74600
O790        O  0.79626491  0.69561107  0.28941397    -0.80400
O791        O  0.72722377  0.76601756  0.30123394    -0.82100
O792        O  0.69538210  0.74434268  0.21781407    -0.80400
C793        C  0.78309708  0.71150668  0.23793201     0.87700
O794        O  0.73295000  0.72217545  0.22173352    -0.87600
O795        O  0.74176430  0.68774725  0.24140023    -0.87700
O796        O  0.71265290  0.69148858  0.24525029    -0.74700
Mg797      Mg  0.78468383  0.72120395  0.27589989     1.58000
O798        O  0.78926741  0.67116975  0.27325026    -0.82100
H799        H  0.76320264  0.77041469  0.25438394    -0.05800
O800        O  0.71322874  0.73330088  0.25557040    -0.87400
H801        H  0.69414452  0.72083633  0.27017449    -0.05600
H802        H  0.74619927  0.73652635  0.20298041    -0.05800
C803        C  0.70722802  0.72741467  0.27005324     0.87700
C804        C  0.76265853  0.75739804  0.26106682     0.88300
C805        C  0.73924406  0.73653607  0.21584499     0.88400
H806        H  0.72624091  0.66906152  0.25338967    -0.05800
O807        O  0.75177933  0.68848984  0.28341797    -0.74800
Mg808      Mg  0.70572809  0.71859737  0.23169098     1.58000
H809        H  0.74478343  0.70313846  0.30551223    -0.05800
C810        C  0.71483089  0.77487358  0.29328798     0.93300
O811        O  0.70047267  0.76905941  0.23424420    -0.82100
C812        C  0.69296113  0.76110242  0.22090392     0.93400
O813        O  0.79335157  0.73771636  0.30039938    -0.82000
Mg814      Mg  0.76503521  0.67974743  0.25682209     1.58200
O815        O  0.71120060  0.77224305  0.27659622    -0.80400
O816        O  0.76254937  0.67259676  0.20693485    -0.82100
O817        O  0.73976578  0.21755998  0.78895106    -0.87700
C818        C  0.71451024  0.21360706  0.73984813     0.88400
Mg819      Mg  0.75643803  0.24039017  0.79570845     1.58100
O820        O  0.75222565  0.18480161  0.74487316    -0.87400
O821        O  0.74148778  0.18806152  0.78655521    -0.74700
C822        C  0.81116223  0.25189193  0.72577629     0.93400
O823        O  0.72402923  0.24985082  0.76385294    -0.74500
O824        O  0.80342257  0.26082191  0.73825688    -0.82000
Mg825      Mg  0.71348568  0.22422488  0.77793323     1.58000
C826        C  0.79011637  0.18211556  0.70307216     0.93300
O827        O  0.69927762  0.20056966  0.79171910    -0.80300
H828        H  0.76520518  0.16490151  0.75782372    -0.05600
C829        C  0.76197257  0.23251163  0.71835615     0.88300
O830        O  0.78236008  0.22473724  0.78854525    -0.74800
O831        O  0.71982739  0.20784786  0.75461714    -0.87600
O832        O  0.77328870  0.17956105  0.70595007    -0.80400
C833        C  0.71712702  0.16449823  0.71779535     0.93500
C834        C  0.69455339  0.18435500  0.78841092     0.93300
Mg835      Mg  0.79233701  0.21135093  0.73600388     1.58000
O836        O  0.80671021  0.23557494  0.72237125    -0.80300
O837        O  0.78147517  0.18553868  0.74970832    -0.74600
O838        O  0.71344812  0.16799750  0.73432870    -0.80400
O839        O  0.70643257  0.24179067  0.80256346    -0.82100
O840        O  0.79182056  0.26671836  0.77904090    -0.80400
C841        C  0.76615962  0.17776752  0.75089537     0.87700
O842        O  0.78589795  0.22747765  0.75928908    -0.87600
O843        O  0.76607961  0.21771464  0.72497013    -0.87700
O844        O  0.76435752  0.24719334  0.72695065    -0.74700
Mg845      Mg  0.72761497  0.18009677  0.75976141     1.58000
O846        O  0.73062882  0.17172632  0.70987603    -0.82100
H847        H  0.75065113  0.20210467  0.80832205    -0.05800
O848        O  0.75323131  0.24988042  0.76838666    -0.87400
H849        H  0.74068263  0.27005559  0.75544887    -0.05600
H850        H  0.80375045  0.21436274  0.77483460    -0.05800
C851        C  0.73947086  0.25725102  0.76245008     0.87700
C852        C  0.74407120  0.20266976  0.79526156     0.88300
C853        C  0.79131259  0.22201417  0.77414231     0.88400
H854        H  0.75570717  0.23292082  0.70513765    -0.05800
O855        O  0.72348153  0.21110358  0.72542715    -0.74800
Mg856      Mg  0.77778000  0.25499173  0.75388975     1.58000
H857        H  0.70216775  0.22141769  0.73927142    -0.05800
C858        C  0.71574019  0.25396560  0.81051944     0.93300
O859        O  0.77332072  0.26494658  0.80256903    -0.82100
C860        C  0.78663211  0.27224499  0.79447764     0.93400
O861        O  0.70179413  0.17507710  0.77583915    -0.82000
Mg862      Mg  0.74904511  0.19523600  0.71774389     1.58200
O863        O  0.73240063  0.25618071  0.80694622    -0.80400
O864        O  0.79927329  0.19406917  0.71146706    -0.82100
C865        C  0.15127219  0.37333126  0.84616422     0.80900
N866        N  0.15488395  0.39135408  0.84573179    -0.77400
C867        C  0.14637168  0.40288290  0.85716730     0.83400
N868        N  0.13338306  0.39643174  0.86837830    -0.77300
C869        C  0.12905322  0.37861748  0.86845216     0.83400
N870        N  0.13814182  0.36705526  0.85750570    -0.79100
C871        C  0.13806026  0.56768931  0.84846846     0.80900
N872        N  0.14310270  0.55019554  0.84586568    -0.77400
C873        C  0.13592052  0.53681682  0.85627353     0.83400
N874        N  0.12375754  0.54103303  0.86934101    -0.77300
C875        C  0.11859778  0.55839902  0.87196675     0.83400
N876        N  0.12587704  0.57164685  0.86161201    -0.79100
O877        O  0.26538931  0.19149331  0.74841276    -0.87700
C878        C  0.29355973  0.23862544  0.75407987     0.88400
Mg879      Mg  0.25141960  0.18378206  0.72413968     1.58100
O880        O  0.25189186  0.23646394  0.77657115    -0.87400
O881        O  0.26005534  0.19445353  0.77733760    -0.74700
C882        C  0.20306629  0.25526726  0.70209851     0.93400
O883        O  0.28659352  0.21406139  0.71799325    -0.74500
O884        O  0.21086896  0.24193550  0.69458541    -0.82000
Mg885      Mg  0.29303803  0.20068540  0.74533967     1.58000
C886        C  0.21655440  0.27907054  0.77309754     0.93300
O887        O  0.30320939  0.18680358  0.77127007    -0.80300
H888        H  0.23533177  0.22477728  0.79451499    -0.05600
C889        C  0.25077391  0.26103525  0.72672076     0.88300
O890        O  0.22415169  0.19322399  0.73549985    -0.74800
O891        O  0.28621278  0.22461041  0.75953395    -0.87600
O892        O  0.23263918  0.27533727  0.77795280    -0.80400
C893        C  0.28553063  0.26230765  0.80049715     0.93500
C894        C  0.30576117  0.19051583  0.78791616     0.93300
Mg895      Mg  0.21678790  0.24658607  0.74415645     1.58000
O896        O  0.20692869  0.26038562  0.71808805    -0.80300
O897        O  0.22285849  0.23313433  0.77152038    -0.74600
O898        O  0.28846509  0.24552004  0.79792828    -0.80400
O899        O  0.30107061  0.17583931  0.73017237    -0.82100
O900        O  0.22071513  0.20020523  0.69174208    -0.80400
C901        C  0.23673106  0.23138001  0.78152630     0.87700
O902        O  0.22340601  0.22226342  0.73013843    -0.87600
O903        O  0.24434829  0.25553865  0.74117247    -0.87700
O904        O  0.24923771  0.25201034  0.71215276    -0.74700
Mg905      Mg  0.27429949  0.22075765  0.78578220     1.58000
O906        O  0.27340399  0.27070145  0.79160338    -0.82100
H907        H  0.25172186  0.17286377  0.76254441    -0.05800
O908        O  0.25766670  0.20996992  0.71269721    -0.87400
H909        H  0.27409676  0.22199155  0.69486020    -0.05600
H910        H  0.20252810  0.20909455  0.74126345    -0.05800
C911        C  0.27275982  0.21538032  0.70785304     0.87700
C912        C  0.25893559  0.18561144  0.76267158     0.88300
C913        C  0.21601258  0.20831703  0.73565511     0.88400
H914        H  0.25818034  0.27367223  0.72653561    -0.05800
O915        O  0.28538244  0.25370014  0.75424496    -0.74800
Mg916      Mg  0.23494439  0.22549577  0.70373709     1.58000
H917        H  0.30702959  0.23790456  0.74842952    -0.05800
C918        C  0.29328485  0.16747177  0.71740508     0.93300
O919        O  0.23631685  0.17530810  0.69860355    -0.82100
C920        C  0.22421658  0.18346730  0.68944394     0.93400
O921        O  0.29781754  0.20371487  0.79549626    -0.82000
Mg922      Mg  0.25820018  0.26285759  0.76586710     1.58200
O923        O  0.27693235  0.17071455  0.71301180    -0.80400
O924        O  0.20916440  0.27191009  0.75932392    -0.82100
O925        O  0.24521476  0.70242240  0.21242427    -0.87700
C926        C  0.23707771  0.67671374  0.26080307     0.88400
Mg927      Mg  0.26895184  0.71834300  0.20702747     1.58100
O928        O  0.20963719  0.71502602  0.25429809    -0.87400
O929        O  0.21569709  0.70524357  0.21290148    -0.74700
C930        C  0.27522629  0.77248753  0.27843023     0.93400
O931        O  0.27506620  0.68565494  0.23935463    -0.74500
O932        O  0.28526582  0.76524303  0.26644592    -0.82000
Mg933      Mg  0.25001634  0.67594442  0.22356504     1.58000
C934        C  0.20473039  0.75267921  0.29606167     0.93300
O935        O  0.22694376  0.66268035  0.20765443    -0.80300
H936        H  0.19095683  0.72827625  0.23991298    -0.05600
C937        C  0.25560183  0.72295261  0.28361094     0.88300
O938        O  0.25347159  0.74456155  0.21337184    -0.74800
O939        O  0.23261394  0.68255687  0.24578146    -0.87600
O940        O  0.20173981  0.73595897  0.29293794    -0.80400
C941        C  0.18733348  0.67958879  0.27908561     0.93500
C942        C  0.21045152  0.65837095  0.20996748     0.93300
Mg943      Mg  0.23625083  0.75389505  0.26492347     1.58000
O944        O  0.25904099  0.76724054  0.28090819    -0.80300
O945        O  0.21141036  0.74412656  0.24914997    -0.74600
O946        O  0.19250397  0.67649195  0.26296085    -0.80400
O947        O  0.26825132  0.66875333  0.20023261    -0.82100
O948        O  0.29508428  0.75360506  0.22549285    -0.80400
C949        C  0.20332542  0.72903113  0.24770274     0.87700
O950        O  0.25403066  0.74742011  0.24278292    -0.87600
O951        O  0.24123687  0.72757258  0.27636634    -0.87700
O952        O  0.27083436  0.72548274  0.27600932    -0.74700
Mg953      Mg  0.20564341  0.69105010  0.23877482     1.58000
O954        O  0.19341958  0.69309536  0.28796795    -0.82100
H955        H  0.23151358  0.71427780  0.19232396    -0.05800
O956        O  0.27706869  0.71487241  0.23481576    -0.87400
H957        H  0.29546670  0.70123067  0.24922485    -0.05600
H958        H  0.24260774  0.76594908  0.22670218    -0.05800
C959        C  0.28317493  0.70071103  0.24129574     0.87700
C960        C  0.23094730  0.70741358  0.20524157     0.88300
C961        C  0.24985775  0.75329139  0.22769994     0.88400
H962        H  0.25516217  0.71617023  0.29657695    -0.05800
O963        O  0.23361593  0.68536608  0.27522023    -0.74800
Mg964      Mg  0.28108438  0.73941022  0.25000857     1.58000
H965        H  0.24452691  0.66416089  0.26165543    -0.05800
C966        C  0.28126966  0.67717615  0.19280437     0.93300
O967        O  0.29377064  0.73526044  0.20152803    -0.82100
C968        C  0.30037407  0.74886236  0.20974203     0.93400
O969        O  0.20077132  0.66595458  0.22197353    -0.82000
Mg970      Mg  0.21780165  0.71124369  0.28204951     1.58200
O971        O  0.28488971  0.69365577  0.19638594    -0.80400
O972        O  0.21750452  0.76106453  0.28807750    -0.82100
O973        O  0.74248437  0.18336285  0.24757858    -0.87700
C974        C  0.71890634  0.23273266  0.23886759     0.88400
Mg975      Mg  0.75660838  0.17692920  0.27206714     1.58100
O976        O  0.76029935  0.22644431  0.21591991    -0.87400
O977        O  0.74829906  0.18491071  0.21857825    -0.74700
C978        C  0.80946650  0.24735191  0.28916197     0.93400
O979        O  0.72380255  0.20972824  0.27687978    -0.74500
O980        O  0.80069977  0.23471248  0.29680280    -0.82000
Mg981      Mg  0.71591555  0.19524193  0.25067387     1.58000
C982        C  0.79798421  0.26898584  0.21695453     0.93300
O983        O  0.70372879  0.18124037  0.22571569    -0.80300
H984        H  0.77563734  0.21344979  0.19785051    -0.05600
C985        C  0.76322477  0.25401374  0.26354517     0.88300
O986        O  0.78404933  0.18404208  0.25900648    -0.74800
O987        O  0.72493148  0.21777871  0.23454650    -0.87600
O988        O  0.78196729  0.26515617  0.21189496    -0.80400
C989        C  0.72888914  0.25304774  0.19056207     0.93500
C990        C  0.70123594  0.18495026  0.20905350     0.93300
Mg991      Mg  0.79644986  0.23665342  0.24676782     1.58000
O992        O  0.80753391  0.25087009  0.27236253    -0.80300
O993        O  0.78932465  0.22239580  0.21995294    -0.74600
O994        O  0.72435867  0.23679198  0.19417818    -0.80400
O995        O  0.70619126  0.17173576  0.26841886    -0.82100
O996        O  0.78921296  0.19386004  0.30124378    -0.80400
C997        C  0.77500947  0.22059969  0.21058970     0.87700
O998        O  0.78782243  0.21333238  0.26198101    -0.87600
O999        O  0.76953073  0.24738081  0.24957364    -0.87700
O1000       O  0.76361280  0.24556798  0.27851295    -0.74700
Mg1001     Mg  0.73632587  0.21171025  0.20837909     1.58000
O1002       O  0.74157078  0.26103696  0.19900446    -0.82100
H1003       H  0.75468243  0.16327755  0.23425646    -0.05800
O1004       O  0.75261386  0.20432631  0.28062264    -0.87400
H1005       H  0.73806600  0.21796555  0.29884305    -0.05600
H1006       H  0.80656034  0.19747461  0.25067741    -0.05800
C1007       C  0.73822401  0.21074367  0.28613010     0.87700
C1008       C  0.74851273  0.17651877  0.23358204     0.88300
C1009       C  0.79345588  0.19835686  0.25710709     0.88400
H1010       H  0.75673280  0.26709959  0.26289125    -0.05800
O1011       O  0.72828251  0.24704618  0.23718851    -0.74800
Mg1012     Mg  0.77627821  0.21886850  0.28815235     1.58000
H1013       H  0.70552659  0.23357886  0.24471055    -0.05800
C1014       C  0.71384597  0.16412343  0.28186717     0.93300
O1015       O  0.77151156  0.16981585  0.29810384    -0.82100
C1016       C  0.78442360  0.17802517  0.30604248     0.93400
O1017       O  0.71098627  0.19635895  0.20057585    -0.82000
Mg1018     Mg  0.75598063  0.25391890  0.22483229     1.58200
O1019       O  0.73055819  0.16666649  0.28533580    -0.80400
O1020       O  0.80528631  0.26132944  0.23055887    -0.82100
C1021       C  0.14097895  0.12345370  0.39606008     0.80900
N1022       N  0.14510762  0.12823846  0.41334269    -0.77400
C1023       C  0.13496769  0.12216594  0.42739373     0.83400
N1024       N  0.12041618  0.11144019  0.42396781    -0.77300
C1025       C  0.11636553  0.10633345  0.40682790     0.83400
N1026       N  0.12676802  0.11221464  0.39289392    -0.79100
C1027       C  0.15357394  0.11858018  0.59186320     0.80900
N1028       N  0.15599728  0.12320538  0.57416999    -0.77400
C1029       C  0.14569675  0.11541207  0.56103393     0.83400
N1030       N  0.13298922  0.10295078  0.56567874    -0.77300
C1031       C  0.12992293  0.09884348  0.58331120     0.83400
N1032       N  0.14035144  0.10656432  0.59632719    -0.79100
O1033       O  0.28810228  0.21704358  0.23755084    -0.87700
C1034       C  0.24049174  0.22507435  0.21098624     0.88400
Mg1035     Mg  0.29293420  0.19351614  0.25352956     1.58100
O1036       O  0.24588313  0.25116041  0.25043656    -0.87400
O1037       O  0.28771815  0.24642339  0.24110498    -0.74700
C1038       C  0.21975326  0.18289507  0.30318344     0.93400
O1039       O  0.26216728  0.18710710  0.21869380    -0.74500
O1040       O  0.23167023  0.17374851  0.29491201    -0.82000
Mg1041     Mg  0.27797070  0.21250575  0.21053534     1.58000
C1042       C  0.20260183  0.25515860  0.28697877     0.93300
O1043       O  0.29407657  0.23606400  0.19834310    -0.80300
H1044       H  0.25925768  0.26976519  0.26485786    -0.05600
C1045       C  0.21574219  0.20543831  0.25535981     0.88300
O1046       O  0.28496899  0.20833891  0.27953925    -0.74800
O1047       O  0.25542824  0.22957346  0.21706001    -0.87600
O1048       O  0.20645218  0.25840167  0.27046990    -0.80400
C1049       C  0.22205794  0.27449684  0.21578237     0.93500
C1050       C  0.29164558  0.25257832  0.19417806     0.93300
Mg1051     Mg  0.23314945  0.22355507  0.28814360     1.58000
O1052       O  0.21740915  0.19968808  0.30018347    -0.80300
O1053       O  0.24901575  0.24903965  0.27976389    -0.74600
O1054       O  0.23814927  0.26956202  0.21221222    -0.80400
O1055       O  0.30155968  0.19417596  0.20383568    -0.82100
O1056       O  0.27235266  0.16592445  0.28547425    -0.80400
C1057       C  0.25155328  0.25730610  0.26490773     0.87700
O1058       O  0.25550010  0.20649562  0.28134541    -0.87600
O1059       O  0.22277065  0.21941539  0.26128739    -0.87700
O1060       O  0.22355597  0.19020687  0.25654691    -0.74700
Mg1061     Mg  0.26204065  0.25628778  0.22672829     1.58000
O1062       O  0.21312146  0.26786953  0.22889982    -0.82100
H1063       H  0.30816506  0.23037173  0.24991062    -0.05800
O1064       O  0.26544670  0.18531445  0.24799176    -0.87400
H1065       H  0.25240947  0.16631818  0.23378486    -0.05600
H1066       H  0.27048665  0.21793037  0.30075127    -0.05800
C1067       C  0.25991471  0.17889696  0.23359368     0.87700
C1068       C  0.29532215  0.23114261  0.24293675     0.88300
C1069       C  0.27021922  0.21100045  0.28787798     0.88400
H1070       H  0.20293396  0.20632932  0.24833532    -0.05800
O1071       O  0.22592744  0.22816904  0.21956281    -0.74800
Mg1072     Mg  0.24902293  0.17992552  0.27093938     1.58000
H1073       H  0.23983940  0.21791180  0.19825424    -0.05800
C1074       C  0.30872383  0.18136163  0.21280608     0.93300
O1075       O  0.29833813  0.16882481  0.27083219    -0.82100
C1076       C  0.28883371  0.16162876  0.28327081     0.93400
O1077       O  0.27937881  0.26196128  0.20180758    -0.82000
Mg1078     Mg  0.21819638  0.24314960  0.24573433     1.58200
O1079       O  0.30483413  0.17844735  0.22934475    -0.80400
O1080       O  0.20963526  0.24185578  0.29538420    -0.82100
C1081       C  0.19462537  0.17074974  0.34640939    -0.11200
C1082       C  0.18902122  0.15307256  0.34237346     0.11400
C1083       C  0.19303089  0.14541116  0.32531439    -0.03000
C1084       C  0.20290536  0.15580198  0.31284261    -0.05700
C1085       C  0.20851847  0.17353018  0.31679471    -0.16500
C1086       C  0.20441510  0.18122503  0.33389771     0.02400
C1087       C  0.17718391  0.14384507  0.35558915     0.12400
C1088       C  0.18702436  0.12635862  0.32030568     0.63000
H1089       H  0.20628386  0.15015935  0.29975774     0.12400
C1090       C  0.21067731  0.20012753  0.33919061     0.55100
H1091       H  0.19097536  0.17636271  0.35943698     0.08200
C1092       C  0.18402162  0.13497964  0.37111097    -0.05600
C1093       C  0.17162702  0.12793993  0.38370268    -0.06400
C1094       C  0.15284977  0.12945257  0.38113419    -0.15900
C1095       C  0.14606866  0.13770827  0.36518701    -0.01500
C1096       C  0.15847355  0.14513475  0.35285523    -0.09100
C1097       C  0.20421628  0.13351348  0.37470773     0.65200
H1098       H  0.17652557  0.12144239  0.39589414     0.10700
C1099       C  0.12593427  0.13906654  0.36128235     0.63600
H1100       H  0.15369371  0.15212785  0.34088058     0.08000
F1101       F  0.20668605  0.20405267  0.35705740    -0.19500
F1102       F  0.20214757  0.21292053  0.32851703    -0.15700
F1103       F  0.22922715  0.20156168  0.33703131    -0.19200
F1104       F  0.16842793  0.12485455  0.32148436    -0.22600
F1105       F  0.19486239  0.11395989  0.33189208    -0.24000
F1106       F  0.19197915  0.12189029  0.30281136    -0.18000
F1107       F  0.12246742  0.14897630  0.34574419    -0.20500
F1108       F  0.11721768  0.14744629  0.37553686    -0.21700
F1109       F  0.11881456  0.12192463  0.35880805    -0.18900
F1110       F  0.20784573  0.12255379  0.38948695    -0.18900
F1111       F  0.21128698  0.15050173  0.37811642    -0.22800
F1112       F  0.21293370  0.12619952  0.35990613    -0.24400
C1113       C  0.16009977  0.12789073  0.47228418    -0.11200
C1114       C  0.14537768  0.12886629  0.48420465     0.11400
C1115       C  0.12760631  0.13032591  0.47716749    -0.03000
C1116       C  0.12510057  0.12921572  0.45837826    -0.05700
C1117       C  0.13962914  0.12652708  0.44646414    -0.16500
C1118       C  0.15758731  0.12632121  0.45342695     0.02400
C1119       C  0.14856183  0.12582397  0.50386420     0.12400
C1120       C  0.11126049  0.13256782  0.48943404     0.63000
H1121       H  0.11155256  0.12988667  0.45281903     0.12400
C1122       C  0.17394986  0.12325645  0.44137222     0.55100
H1123       H  0.17356737  0.12728431  0.47803364     0.08200
C1124       C  0.15146598  0.10815125  0.51079966    -0.05600
C1125       C  0.15135653  0.10555525  0.52966002    -0.06400
C1126       C  0.14828858  0.11992109  0.54166186    -0.15900
C1127       C  0.14584449  0.13765376  0.53474102    -0.01500
C1128       C  0.14650360  0.14036648  0.51586603    -0.09100
C1129       C  0.15403348  0.09199245  0.49832052     0.65200
H1130       H  0.15315744  0.09210906  0.53523506     0.10700
C1131       C  0.14123657  0.15335145  0.54711084     0.63600
H1132       H  0.14448180  0.15375165  0.51024396     0.08000
F1133       F  0.18982088  0.12201040  0.45126400    -0.19500
F1134       F  0.17585789  0.13754288  0.42941926    -0.15700
F1135       F  0.17185621  0.10727279  0.43184741    -0.19200
F1136       F  0.11217202  0.14914757  0.49803230    -0.22600
F1137       F  0.11081830  0.11892726  0.50225831    -0.24000
F1138       F  0.09516398  0.13191498  0.47984932    -0.18000
F1139       F  0.15548107  0.15667278  0.55876362    -0.20500
F1140       F  0.12589643  0.14920223  0.55702890    -0.21700
F1141       F  0.13786999  0.16908380  0.53749544    -0.18900
F1142       F  0.15526698  0.07590178  0.50785518    -0.18900
F1143       F  0.16980810  0.09405824  0.48848653    -0.22800
F1144       F  0.13954764  0.09057356  0.48653612    -0.24400
C1145       C  0.18245057  0.12740930  0.63387570    -0.11200
C1146       C  0.18389577  0.14631316  0.63336812     0.11400
C1147       C  0.17629307  0.15600555  0.61868014    -0.03000
C1148       C  0.16639603  0.14642303  0.60550165    -0.05700
C1149       C  0.16442452  0.12752285  0.60625524    -0.16500
C1150       C  0.17303764  0.11773273  0.62040134     0.02400
C1151       C  0.19394092  0.15552682  0.64819183     0.12400
C1152       C  0.17905469  0.17629172  0.61669782     0.63000
H1153       H  0.16008415  0.15366493  0.59444200     0.12400
C1154       C  0.17298578  0.09717613  0.62097245     0.55100
H1155       H  0.18882181  0.12028353  0.64499540     0.08200
C1156       C  0.18542500  0.16074112  0.66454700    -0.05600
C1157       C  0.19568356  0.17005923  0.67769315    -0.06400
C1158       C  0.21421986  0.17343795  0.67524601    -0.15900
C1159       C  0.22282248  0.16766807  0.65912810    -0.01500
C1160       C  0.21245805  0.15884329  0.64579297    -0.09100
C1161       C  0.16579508  0.15589125  0.66829255     0.65200
H1162       H  0.18941823  0.17442459  0.69018819     0.10700
C1163       C  0.24278330  0.17124308  0.65588624     0.63600
H1164       H  0.21870535  0.15447773  0.63328915     0.08000
F1165       F  0.15584630  0.09088191  0.62506091    -0.19500
F1166       F  0.18478822  0.09056205  0.63394955    -0.15700
F1167       F  0.17832366  0.09037511  0.60438235    -0.19200
F1168       F  0.19723763  0.17990561  0.61413383    -0.22600
F1169       F  0.17320277  0.18516910  0.63205892    -0.24000
F1170       F  0.16963005  0.18322274  0.60205208    -0.18000
F1171       F  0.25293399  0.16256935  0.66897963    -0.20500
F1172       F  0.24613625  0.18965441  0.65664971    -0.21700
F1173       F  0.24836839  0.16500559  0.63914248    -0.18900
F1174       F  0.15974977  0.16334262  0.68436113    -0.18900
F1175       F  0.16408794  0.13728552  0.66950110    -0.22800
F1176       F  0.15477716  0.16212543  0.65451580    -0.24400
C1177       C  0.18723802  0.34953723  0.81747872    -0.11200
C1178       C  0.17782797  0.33385652  0.81251632     0.11400
C1179       C  0.15984870  0.33117506  0.81842461    -0.03000
C1180       C  0.15170473  0.34465262  0.82898332    -0.05700
C1181       C  0.16099367  0.36050109  0.83407480    -0.16500
C1182       C  0.17919712  0.36305921  0.82816653     0.02400
C1183       C  0.18757566  0.31995904  0.80196903     0.12400
C1184       C  0.14934047  0.31410570  0.81367520     0.63000
H1185       H  0.13788541  0.34279852  0.83343018     0.12400
C1186       C  0.19045522  0.37954161  0.83331657     0.55100
H1187       H  0.20110430  0.35097603  0.81295069     0.08200
C1188       C  0.18979321  0.32127978  0.78299569    -0.05600
C1189       C  0.19905281  0.30736460  0.77398631    -0.06400
C1190       C  0.20637519  0.29262891  0.78346051    -0.15900
C1191       C  0.20404682  0.29127412  0.80241973    -0.01500
C1192       C  0.19485442  0.30520966  0.81141502    -0.09100
C1193       C  0.18280119  0.33746916  0.77242235     0.65200
H1194       H  0.20109429  0.30811026  0.75948895     0.10700
C1195       C  0.21069132  0.27495100  0.81301186     0.63600
H1196       H  0.19318039  0.30469743  0.82596978     0.08000
F1197       F  0.18354290  0.39482193  0.82500303    -0.19500
F1198       F  0.20832073  0.37784548  0.82793816    -0.15700
F1199       F  0.19037277  0.38179252  0.85189734    -0.19200
F1200       F  0.15787712  0.29911299  0.82088448    -0.22600
F1201       F  0.14830346  0.31224889  0.79509709    -0.24000
F1202       F  0.13187786  0.31448320  0.82043616    -0.18000
F1203       F  0.22938045  0.27511112  0.81383830    -0.20500
F1204       F  0.20493910  0.25918097  0.80469381    -0.21700
F1205       F  0.20409298  0.27486718  0.83054144    -0.18900
F1206       F  0.18512604  0.33529698  0.75396198    -0.18900
F1207       F  0.19207089  0.35287379  0.77764579    -0.22800
F1208       F  0.16454764  0.33987602  0.77566876    -0.24400
C1209       C  0.15093614  0.45249362  0.86940576    -0.11200
C1210       C  0.14986967  0.46037390  0.85220852     0.11400
C1211       C  0.15097725  0.44941818  0.83659386    -0.03000
C1212       C  0.15077808  0.43051414  0.83878619    -0.05700
C1213       C  0.14968756  0.42256332  0.85603553    -0.16500
C1214       C  0.15087644  0.43364338  0.87165634     0.02400
C1215       C  0.14620696  0.48000233  0.85126407     0.12400
C1216       C  0.15206845  0.45767879  0.81781157     0.63000
H1217       H  0.15052790  0.42183211  0.82699140     0.12400
C1218       C  0.15187477  0.42580618  0.89064254     0.55100
H1219       H  0.15072456  0.46127575  0.88113909     0.08200
C1220       C  0.12831038  0.48666420  0.85251503    -0.05600
C1221       C  0.12566719  0.50543386  0.85283636    -0.06400
C1222       C  0.14027413  0.51758825  0.85311181    -0.15900
C1223       C  0.15824018  0.51089703  0.85257760    -0.01500
C1224       C  0.16087608  0.49206814  0.85125680    -0.09100
C1225       C  0.11213344  0.47402670  0.85449988     0.65200
H1226       H  0.11206760  0.51081640  0.85365134     0.10700
C1227       C  0.17447643  0.52336146  0.85463830     0.63600
H1228       H  0.17442864  0.48652397  0.85090857     0.08000
F1229       F  0.13495957  0.41983393  0.89598109    -0.19500
F1230       F  0.15772426  0.43860312  0.90302627    -0.15700
F1231       F  0.16395743  0.41152946  0.89111142    -0.19200
F1232       F  0.16669963  0.46934124  0.81690519    -0.22600
F1233       F  0.13644490  0.46720766  0.81402997    -0.24000
F1234       F  0.15425767  0.44458848  0.80460163    -0.18000
F1235       F  0.19045866  0.51375793  0.85634586    -0.20500
F1236       F  0.17249813  0.53389638  0.86997570    -0.21700
F1237       F  0.17596196  0.53445110  0.83964677    -0.18900
F1238       F  0.09597992  0.48343893  0.85545438    -0.18900
F1239       F  0.11380760  0.46398887  0.87020999    -0.22800
F1240       F  0.11114792  0.46239879  0.83991122    -0.24400
C1241       C  0.16924836  0.64106134  0.80760402    -0.11200
C1242       C  0.17788778  0.62638025  0.81592144     0.11400
C1243       C  0.19698082  0.62530748  0.81607939    -0.03000
C1244       C  0.20693234  0.63985232  0.80902530    -0.05700
C1245       C  0.19837691  0.65466566  0.80082199    -0.16500
C1246       C  0.17921720  0.65521397  0.79966092     0.02400
C1247       C  0.16659326  0.61204134  0.82405617     0.12400
C1248       C  0.20674442  0.60860763  0.82304812     0.63000
H1249       H  0.22158802  0.63944450  0.80919574     0.12400
C1250       C  0.16931893  0.67067260  0.79038972     0.55100
H1251       H  0.15459376  0.64119786  0.80726457     0.08200
C1252       C  0.16062691  0.61309413  0.84216215    -0.05600
C1253       C  0.15151627  0.59817195  0.84954885    -0.06400
C1254       C  0.14751739  0.58272257  0.83917965    -0.15900
C1255       C  0.15203447  0.58247189  0.82051500    -0.01500
C1256       C  0.16182415  0.59715500  0.81334031    -0.09100
C1257       C  0.16368030  0.62996475  0.85352032     0.65200
H1258       H  0.14756237  0.59843675  0.86365040     0.10700
C1259       C  0.14597244  0.56733058  0.80800903     0.63600
H1260       H  0.16603244  0.59709440  0.79930116     0.08000
F1261       F  0.15074157  0.66923684  0.79241766    -0.19500
F1262       F  0.17301675  0.67060668  0.77205789    -0.15700
F1263       F  0.17476030  0.68700540  0.79774989    -0.19200
F1264       F  0.20156039  0.59368081  0.81302045    -0.22600
F1265       F  0.20252125  0.60564395  0.84101834    -0.24000
F1266       F  0.22535564  0.61032927  0.82164506    -0.18000
F1267       F  0.14904324  0.57158649  0.79001115    -0.20500
F1268       F  0.12761196  0.56429222  0.81010902    -0.21700
F1269       F  0.15534947  0.55164819  0.81189386    -0.18900
F1270       F  0.15611459  0.62832508  0.87058447    -0.18900
F1271       F  0.15578546  0.64470589  0.84512579    -0.22800
F1272       F  0.18199486  0.63318918  0.85555064    -0.24400
C1273       C  0.62563326  0.77451416  0.84402093    -0.11200
C1274       C  0.63513161  0.78432400  0.83080784     0.11400
C1275       C  0.63097517  0.80275858  0.82764032    -0.03000
C1276       C  0.61770392  0.81098828  0.83840117    -0.05700
C1277       C  0.60850631  0.80128853  0.85185903    -0.16500
C1278       C  0.61239968  0.78280309  0.85482922     0.02400
C1279       C  0.64899277  0.77474244  0.82006770     0.12400
C1280       C  0.64064732  0.81371117  0.81313909     0.63000
H1281       H  0.61446274  0.82516296  0.83651551     0.12400
C1282       C  0.60305903  0.77216313  0.86973763     0.55100
H1283       H  0.62884566  0.76033657  0.84590463     0.08200
C1284       C  0.66676892  0.77194026  0.82658482    -0.05600
C1285       C  0.67924968  0.76303687  0.81534857    -0.06400
C1286       C  0.67436235  0.75675370  0.79808206    -0.15900
C1287       C  0.65628859  0.75899485  0.79190885    -0.01500
C1288       C  0.64391693  0.76804048  0.80310847    -0.09100
C1289       C  0.67238493  0.77805982  0.84539902     0.65200
H1290       H  0.69297107  0.76081949  0.82000164     0.10700
C1291       C  0.64975510  0.75118863  0.77403683     0.63600
H1292       H  0.63005886  0.76999948  0.79874313     0.08000
F1293       F  0.60551237  0.78081807  0.88615553    -0.19500
F1294       F  0.60988446  0.75479369  0.87128413    -0.15700
F1295       F  0.58474809  0.77088386  0.86608832    -0.19200
F1296       F  0.63765168  0.80609277  0.79633141    -0.22600
F1297       F  0.65903155  0.81399896  0.81657005    -0.24000
F1298       F  0.63461194  0.83143407  0.81254135    -0.18000
F1299       F  0.65344656  0.73284826  0.77345940    -0.20500
F1300       F  0.65829436  0.75979077  0.75977934    -0.21700
F1301       F  0.63127992  0.75336971  0.77175053    -0.18900
F1302       F  0.69053058  0.77478802  0.84869870    -0.18900
F1303       F  0.66241219  0.76881139  0.85826304    -0.22800
F1304       F  0.66940532  0.79641644  0.84736195    -0.24400
C1305       C  0.35829573  0.78867748  0.85305383    -0.11200
C1306       C  0.36182335  0.78527295  0.83479722     0.11400
C1307       C  0.37850666  0.79053903  0.82706181    -0.03000
C1308       C  0.39138864  0.79898609  0.83819050    -0.05700
C1309       C  0.38780818  0.80276751  0.85648129    -0.16500
C1310       C  0.37101853  0.79732399  0.86418170     0.02400
C1311       C  0.34713255  0.77721860  0.82394909     0.12400
C1312       C  0.38242510  0.78780840  0.80706164     0.63000
H1313       H  0.40415263  0.80335524  0.83245327     0.12400
C1314       C  0.36642706  0.80026093  0.88400535     0.55100
H1315       H  0.34521930  0.78475757  0.85842266     0.08200
C1316       C  0.34367923  0.75843503  0.82393719    -0.05600
C1317       C  0.32909124  0.75193442  0.81365315    -0.06400
C1318       C  0.31793158  0.76358184  0.80344149    -0.15900
C1319       C  0.32129945  0.78258968  0.80391244    -0.01500
C1320       C  0.33584332  0.78898906  0.81436664    -0.09100
C1321       C  0.35537009  0.74535622  0.83471504     0.65200
H1322       H  0.32652031  0.73751110  0.81332966     0.10700
C1323       C  0.30981018  0.79626561  0.79367788     0.63600
H1324       H  0.33872620  0.80335639  0.81506165     0.08000
F1325       F  0.35095709  0.79093043  0.88905182    -0.19500
F1326       F  0.36341204  0.81844135  0.88721993    -0.15700
F1327       F  0.38046305  0.79415732  0.89476196    -0.19200
F1328       F  0.37063215  0.79811213  0.79683728    -0.22600
F1329       F  0.38031033  0.76980409  0.80247221    -0.24000
F1330       F  0.39990854  0.79291906  0.80262311    -0.18000
F1331       F  0.31426209  0.81392589  0.79814362    -0.20500
F1332       F  0.29171677  0.79374067  0.79777807    -0.21700
F1333       F  0.31247367  0.79431841  0.77526822    -0.18900
F1334       F  0.35012812  0.72753736  0.83215369    -0.18900
F1335       F  0.35405418  0.74916390  0.85296952    -0.22800
F1336       F  0.37324943  0.74694286  0.82947291    -0.24400
C1337       C  0.48145203  0.82935579  0.85994347    -0.11200
C1338       C  0.48921230  0.81289478  0.86521343     0.11400
C1339       C  0.47811154  0.79844575  0.87119900    -0.03000
C1340       C  0.45931528  0.80114382  0.87190512    -0.05700
C1341       C  0.45167350  0.81791514  0.86745398    -0.16500
C1342       C  0.46273078  0.83217138  0.86093222     0.02400
C1343       C  0.50907697  0.81239715  0.86698722     0.12400
C1344       C  0.48614383  0.78059703  0.87750250     0.63000
H1345       H  0.45051654  0.79051508  0.87691706     0.12400
C1346       C  0.45481688  0.85014553  0.85478704     0.55100
H1347       H  0.49033384  0.84026269  0.85574031     0.08200
C1348       C  0.52073543  0.81005963  0.85203833    -0.05600
C1349       C  0.53949397  0.81128196  0.85493878    -0.06400
C1350       C  0.54671100  0.81531040  0.87209093    -0.15900
C1351       C  0.53487172  0.81748310  0.88709131    -0.01500
C1352       C  0.51619823  0.81608376  0.88412469    -0.09100
C1353       C  0.51339289  0.80683706  0.83310480     0.65200
H1354       H  0.54866512  0.80982657  0.84361613     0.10700
C1355       C  0.54161804  0.82095052  0.90624106     0.63600
H1356       H  0.50682510  0.81826442  0.89517541     0.08000
F1357       F  0.46792464  0.86148186  0.84760811    -0.19500
F1358       F  0.44693234  0.85906338  0.86917635    -0.15700
F1359       F  0.44190953  0.84707823  0.84157300    -0.19200
F1360       F  0.49651671  0.78331222  0.89283413    -0.22600
F1361       F  0.49691765  0.77337590  0.86406821    -0.24000
F1362       F  0.47285230  0.76803060  0.88166220    -0.18000
F1363       F  0.54853811  0.83829484  0.90762027    -0.20500
F1364       F  0.55485358  0.80850200  0.91069330    -0.21700
F1365       F  0.52785394  0.81934355  0.91885907    -0.18900
F1366       F  0.52713578  0.80404005  0.82069959    -0.18900
F1367       F  0.50352865  0.82169696  0.82749213    -0.22800
F1368       F  0.50230824  0.79175267  0.83299809    -0.24400
C1369       C  0.81707963  0.81410655  0.64193681    -0.11200
C1370       C  0.81396238  0.79596532  0.63747096     0.11400
C1371       C  0.82012025  0.78907458  0.62072794    -0.03000
C1372       C  0.83033561  0.80051708  0.60942789    -0.05700
C1373       C  0.83409419  0.81858411  0.61418064    -0.16500
C1374       C  0.82686449  0.82570627  0.63047541     0.02400
C1375       C  0.80307744  0.78505423  0.65027308     0.12400
C1376       C  0.81582805  0.76983696  0.61478907     0.63000
H1377       H  0.83562292  0.79534242  0.59679425     0.12400
C1378       C  0.82887077  0.84550187  0.63567204     0.55100
H1379       H  0.81170669  0.81911960  0.65460939     0.08200
C1380       C  0.81093834  0.77625338  0.66534898    -0.05600
C1381       C  0.79954022  0.76696244  0.67743892    -0.06400
C1382       C  0.78064168  0.76716193  0.67546143    -0.15900
C1383       C  0.77277239  0.77638607  0.66055994    -0.01500
C1384       C  0.78424757  0.78508056  0.64809853    -0.09100
C1385       C  0.83111103  0.77747920  0.66916729     0.65200
H1386       H  0.80526786  0.75997485  0.68899094     0.10700
C1387       C  0.75246267  0.77687574  0.65761190     0.63600
H1388       H  0.77861739  0.79233497  0.63666294     0.08000
F1389       F  0.84633718  0.84878898  0.64153295    -0.19500
F1390       F  0.81715055  0.85019894  0.64949372    -0.15700
F1391       F  0.82499169  0.85649120  0.62100037    -0.19200
F1392       F  0.79730418  0.76722689  0.61438958    -0.22600
F1393       F  0.82341154  0.75758659  0.62670353    -0.24000
F1394       F  0.82249587  0.76620245  0.59766853    -0.18000
F1395       F  0.74434424  0.78625917  0.67156845    -0.20500
F1396       F  0.74569948  0.75941565  0.65700577    -0.21700
F1397       F  0.74791218  0.78542159  0.64154824    -0.18900
F1398       F  0.83606382  0.76692600  0.68384771    -0.18900
F1399       F  0.83570044  0.79522916  0.67293472    -0.22800
F1400       F  0.84092511  0.77172219  0.65436473    -0.24400
C1401       C  0.82369329  0.80590220  0.36824083    -0.11200
C1402       C  0.82307440  0.78699066  0.36707551     0.11400
C1403       C  0.83279444  0.77636541  0.37975495    -0.03000
C1404       C  0.84262279  0.78519626  0.39352954    -0.05700
C1405       C  0.84346101  0.80415084  0.39456481    -0.16500
C1406       C  0.83378895  0.81475507  0.38177105     0.02400
C1407       C  0.81291999  0.77873612  0.35178115     0.12400
C1408       C  0.83294448  0.75581905  0.37858747     0.63000
H1409       H  0.85019304  0.77735458  0.40333457     0.12400
C1410       C  0.83377342  0.83531061  0.38255817     0.55100
H1411       H  0.81635452  0.81368448  0.35821471     0.08200
C1412       C  0.79416690  0.77506568  0.35279175    -0.05600
C1413       C  0.78579924  0.76603374  0.33826482    -0.06400
C1414       C  0.79542574  0.76115250  0.32259751    -0.15900
C1415       C  0.81390132  0.76630540  0.32099465    -0.01500
C1416       C  0.82235632  0.77489684  0.33578359    -0.09100
C1417       C  0.78296961  0.78112248  0.36890077     0.65200
H1418       H  0.77157688  0.76257222  0.33911975     0.10700
C1419       C  0.82454896  0.76339355  0.30366815     0.63600
H1420       H  0.83655992  0.77849717  0.33510847     0.08000
F1421       F  0.82199508  0.84275675  0.37002299    -0.19500
F1422       F  0.85087282  0.84196872  0.37889832    -0.15700
F1423       F  0.82844273  0.84093019  0.39957994    -0.19200
F1424       F  0.83900746  0.75040673  0.36175753    -0.22600
F1425       F  0.81568537  0.74911113  0.38126769    -0.24000
F1426       F  0.84421349  0.74819507  0.39147032    -0.18000
F1427       F  0.84102336  0.77237186  0.30403628    -0.20500
F1428       F  0.81483093  0.76992260  0.28904733    -0.21700
F1429       F  0.82795324  0.74516828  0.30126811    -0.18900
F1430       F  0.76516311  0.77539687  0.36757246    -0.18900
F1431       F  0.78304509  0.79981286  0.36979190    -0.22800
F1432       F  0.79006847  0.77423714  0.38477177    -0.24400
C1433       C  0.87240389  0.81452065  0.48969450    -0.11200
C1434       C  0.85479485  0.81690423  0.49611486     0.11400
C1435       C  0.84008776  0.81684380  0.48379358    -0.03000
C1436       C  0.84378793  0.81548820  0.46515297    -0.05700
C1437       C  0.86157736  0.81390907  0.45862466    -0.16500
C1438       C  0.87608893  0.81257239  0.47121298     0.02400
C1439       C  0.85294884  0.82146976  0.51551003     0.12400
C1440       C  0.82044138  0.81870984  0.48945411     0.63000
H1441       H  0.83269098  0.81639776  0.45558863     0.12400
C1442       C  0.89559649  0.80970243  0.46549884     0.55100
H1443       H  0.88346368  0.81484484  0.49933932     0.08200
C1444       C  0.85374483  0.80809404  0.52916566    -0.05600
C1445       C  0.85358173  0.81361664  0.54733912    -0.06400
C1446       C  0.85336230  0.83201304  0.55212799    -0.15900
C1447       C  0.85249688  0.84542331  0.53840661    -0.01500
C1448       C  0.85210233  0.83983015  0.52022315    -0.09100
C1449       C  0.85510280  0.78814464  0.52448386     0.65200
H1450       H  0.85430480  0.80357151  0.55800600     0.10700
C1451       C  0.85209046  0.86549732  0.54281991     0.63600
H1452       H  0.85179401  0.84978652  0.50944979     0.08000
F1453       F  0.90589957  0.80289551  0.47961128    -0.19500
F1454       F  0.90309537  0.82602560  0.46016783    -0.15700
F1455       F  0.89648088  0.79738549  0.45145661    -0.19200
F1456       F  0.81388415  0.83517924  0.48346365    -0.22600
F1457       F  0.81799181  0.81767451  0.50796644    -0.24000
F1458       F  0.81037144  0.80498217  0.48162480    -0.18000
F1459       F  0.86888571  0.87094148  0.54906155    -0.20500
F1460       F  0.83917860  0.86892517  0.55591318    -0.21700
F1461       F  0.84788888  0.87584231  0.52776004    -0.18900
F1462       F  0.85410073  0.77728615  0.53973426    -0.18900
F1463       F  0.87143642  0.78478384  0.51603578    -0.22800
F1464       F  0.84111928  0.78332650  0.51300250    -0.24400
C1465       C  0.83820492  0.60082639  0.80721035    -0.11200
C1466       C  0.83042202  0.61519581  0.81682926     0.11400
C1467       C  0.83253883  0.61612907  0.83585538    -0.03000
C1468       C  0.84222738  0.60236474  0.84464856    -0.05700
C1469       C  0.84985664  0.58787213  0.83508807    -0.16500
C1470       C  0.84836507  0.58731607  0.81596398     0.02400
C1471       C  0.81941996  0.62860107  0.80667705     0.12400
C1472       C  0.82450508  0.63146630  0.84689950     0.63000
H1473       H  0.84356354  0.60259965  0.85924215     0.12400
C1474       C  0.85793156  0.57302380  0.80473825     0.55100
H1475       H  0.83614920  0.60022759  0.79271042     0.08200
C1476       C  0.82728661  0.64220821  0.79572809    -0.05600
C1477       C  0.81581677  0.65425142  0.78642618    -0.06400
C1478       C  0.79681708  0.65317278  0.78777613    -0.15900
C1479       C  0.78902459  0.63941906  0.79895640    -0.01500
C1480       C  0.80059089  0.62724678  0.80790831    -0.09100
C1481       C  0.84769839  0.64400051  0.79392327     0.65200
H1482       H  0.82170889  0.66467034  0.77795495     0.10700
C1483       C  0.76869482  0.63716761  0.80148575     0.63600
H1484       H  0.79502989  0.61644060  0.81612880     0.08000
F1485       F  0.85780931  0.57734260  0.78649948    -0.19500
F1486       F  0.84943724  0.55647148  0.80683370    -0.15700
F1487       F  0.87581305  0.57160526  0.81013536    -0.19200
F1488       F  0.80583678  0.63052601  0.84643296    -0.22600
F1489       F  0.83006240  0.64794234  0.83994827    -0.24000
F1490       F  0.82986616  0.63068153  0.86484691    -0.18000
F1491       F  0.76443435  0.62227116  0.81205983    -0.20500
F1492       F  0.76037754  0.63483807  0.78486880    -0.21700
F1493       F  0.76173546  0.65224567  0.81006726    -0.18900
F1494       F  0.85255199  0.65889710  0.78361808    -0.18900
F1495       F  0.85470118  0.62878858  0.78565085    -0.22800
F1496       F  0.85545884  0.64589251  0.81084800    -0.24400
C1497       C  0.81049915  0.34867227  0.83456200    -0.11200
C1498       C  0.82079597  0.33375378  0.82904914     0.11400
C1499       C  0.83984856  0.33413657  0.83078259    -0.03000
C1500       C  0.84795555  0.34936878  0.83870442    -0.05700
C1501       C  0.83768032  0.36410797  0.84481284    -0.16500
C1502       C  0.81861455  0.36392422  0.84259822     0.02400
C1503       C  0.81136931  0.31818261  0.82068221     0.12400
C1504       C  0.85156859  0.31861153  0.82414335     0.63000
H1505       H  0.86251573  0.34995423  0.84006822     0.12400
C1506       C  0.80682085  0.37941998  0.84908086     0.55100
H1507       H  0.79598461  0.34818865  0.83256014     0.08200
C1508       C  0.80288720  0.30450102  0.83106021    -0.05600
C1509       C  0.79526043  0.28957517  0.82199461    -0.06400
C1510       C  0.79582269  0.28804013  0.80300303    -0.15900
C1511       C  0.80363320  0.30237908  0.79265691    -0.01500
C1512       C  0.81126322  0.31717719  0.80182043    -0.09100
C1513       C  0.80206768  0.30564125  0.85157622     0.65200
H1514       H  0.78885413  0.27889526  0.82974673     0.10700
C1515       C  0.80373797  0.30254053  0.77206490     0.63600
H1516       H  0.81752926  0.32812739  0.79431999     0.08000
F1517       F  0.78858000  0.37536687  0.84761103    -0.19500
F1518       F  0.81018949  0.39468080  0.83875843    -0.15700
F1519       F  0.81045931  0.38311047  0.86707162    -0.19200
F1520       F  0.85063141  0.31756050  0.80549397    -0.22600
F1521       F  0.84566589  0.30243306  0.83150861    -0.24000
F1522       F  0.86954589  0.32090733  0.82893462    -0.18000
F1523       F  0.80987657  0.31887431  0.76516425    -0.20500
F1524       F  0.78639598  0.29982424  0.76551554    -0.21700
F1525       F  0.81509143  0.28911636  0.76573587    -0.18900
F1526       F  0.79325267  0.29087206  0.85906602    -0.18900
F1527       F  0.79283521  0.32105279  0.85672053    -0.22800
F1528       F  0.81939405  0.30628600  0.85861768    -0.24400
C1529       C  0.85601870  0.45440640  0.83588771    -0.11200
C1530       C  0.85450759  0.46626155  0.85058975     0.11400
C1531       C  0.85115773  0.45941666  0.86816998    -0.03000
C1532       C  0.84982500  0.44062951  0.87050012    -0.05700
C1533       C  0.85193259  0.42866604  0.85593510    -0.16500
C1534       C  0.85517246  0.43553236  0.83831912     0.02400
C1535       C  0.85715812  0.48585531  0.84758102     0.12400
C1536       C  0.84930747  0.47191159  0.88442583     0.63000
H1537       H  0.84758186  0.43504326  0.88387791     0.12400
C1538       C  0.85884588  0.42303576  0.82244911     0.55100
H1539       H  0.85847984  0.46008352  0.82259515     0.08200
C1540       C  0.87460849  0.49375694  0.84771362    -0.05600
C1541       C  0.87599454  0.51267904  0.84882453    -0.06400
C1542       C  0.86056036  0.52368886  0.84956799    -0.15900
C1543       C  0.84311153  0.51577180  0.84808587    -0.01500
C1544       C  0.84177338  0.49683885  0.84688807    -0.09100
C1545       C  0.89160314  0.48221387  0.84727225     0.65200
H1546       H  0.88918937  0.51904656  0.84964932     0.10700
C1547       C  0.82596347  0.52702190  0.84891870     0.63600
H1548       H  0.82863429  0.49032046  0.84646157     0.08000
F1549       F  0.86360434  0.43256506  0.80702779    -0.19500
F1550       F  0.84351661  0.41300612  0.81856890    -0.15700
F1551       F  0.87295289  0.41146415  0.82664487    -0.19200
F1552       F  0.83398994  0.48245087  0.88252835    -0.22600
F1553       F  0.86429336  0.48307414  0.88580378    -0.24000
F1554       F  0.84781513  0.46233587  0.90046945    -0.18000
F1555       F  0.82501663  0.53826471  0.83399270    -0.20500
F1556       F  0.82592937  0.53734132  0.86452114    -0.21700
F1557       F  0.81055884  0.51630407  0.84903507    -0.18900
F1558       F  0.90716609  0.49268433  0.84748202    -0.18900
F1559       F  0.89179341  0.47192294  0.83166460    -0.22800
F1560       F  0.89204726  0.47082247  0.86212512    -0.24400
C1561       C  0.18017755  0.78155130  0.62202737    -0.11200
C1562       C  0.18202287  0.79108072  0.63830267     0.11400
C1563       C  0.17538187  0.80893016  0.63970453    -0.03000
C1564       C  0.16643880  0.81649679  0.62476899    -0.05700
C1565       C  0.16379262  0.80679358  0.60860450    -0.16500
C1566       C  0.17098274  0.78898364  0.60706676     0.02400
C1567       C  0.19047122  0.78182962  0.65395150     0.12400
C1568       C  0.17748751  0.81982192  0.65702581     0.63000
H1569       H  0.16128234  0.83016693  0.62570985     0.12400
C1570       C  0.16853417  0.77749833  0.59016430     0.55100
H1571       H  0.18571827  0.76800866  0.62133352     0.08200
C1572       C  0.18050608  0.76994833  0.66512378    -0.05600
C1573       C  0.18916215  0.76212475  0.68011142    -0.06400
C1574       C  0.20746877  0.76564687  0.68429128    -0.15900
C1575       C  0.21732873  0.77803369  0.67309512    -0.01500
C1576       C  0.20858655  0.78559883  0.65793150    -0.09100
C1577       C  0.16086034  0.76531888  0.66104302     0.65200
H1578       H  0.18157332  0.75283317  0.68852391     0.10700
C1579       C  0.23678388  0.78368928  0.67690568     0.63600
H1580       H  0.21576700  0.79477270  0.64901286     0.08000
F1581       F  0.17468712  0.75998001  0.59265391    -0.19500
F1582       F  0.17819883  0.78495568  0.57596263    -0.15700
F1583       F  0.15038424  0.77650912  0.58564113    -0.19200
F1584       F  0.19563093  0.82266089  0.66060290    -0.22600
F1585       F  0.16978238  0.81058706  0.67137160    -0.24000
F1586       F  0.16918773  0.83656015  0.65579829    -0.18000
F1587       F  0.24295002  0.79655385  0.66471350    -0.20500
F1588       F  0.24815784  0.76890186  0.67565960    -0.21700
F1589       F  0.23790656  0.79119692  0.69400698    -0.18900
F1590       F  0.15324651  0.75460843  0.67441968    -0.18900
F1591       F  0.15981381  0.75598234  0.64488174    -0.22800
F1592       F  0.15069031  0.78094850  0.65971393    -0.24400
C1593       C  0.18147667  0.79925519  0.36694712    -0.11200
C1594       C  0.16968843  0.79414526  0.35297478     0.11400
C1595       C  0.15106032  0.79822566  0.35433196    -0.03000
C1596       C  0.14472579  0.80704161  0.36997608    -0.05700
C1597       C  0.15644526  0.81213635  0.38410805    -0.16500
C1598       C  0.17525986  0.80842642  0.38246086     0.02400
C1599       C  0.17728169  0.78411048  0.33728064     0.12400
C1600       C  0.13809662  0.79366308  0.33905523     0.63000
H1601       H  0.13045970  0.81003210  0.37128618     0.12400
C1602       C  0.18889615  0.81462064  0.39657497     0.55100
H1603       H  0.19569131  0.79601044  0.36551622     0.08200
C1604       C  0.18634699  0.79269323  0.32272047    -0.05600
C1605       C  0.19441187  0.78186607  0.30933544    -0.06400
C1606       C  0.19371799  0.76278515  0.30979849    -0.15900
C1607       C  0.18400996  0.75425698  0.32417658    -0.01500
C1608       C  0.17617159  0.76517790  0.33769828    -0.09100
C1609       C  0.18814069  0.81307889  0.32053091     0.65200
H1610       H  0.20158664  0.78856409  0.29841440     0.10700
C1611       C  0.18215962  0.73380731  0.32579982     0.63600
H1612       H  0.16920825  0.75899628  0.34902920     0.08000
F1613       F  0.20654054  0.81216046  0.39080811    -0.19500
F1614       F  0.18662196  0.80481017  0.41235682    -0.15700
F1615       F  0.18660060  0.83286626  0.40009667    -0.19200
F1616       F  0.13772675  0.77516755  0.33626760    -0.22600
F1617       F  0.14372609  0.80216150  0.32334392    -0.24000
F1618       F  0.12063218  0.79928347  0.34276694    -0.18000
F1619       F  0.17261829  0.72873430  0.34111677    -0.20500
F1620       F  0.19910023  0.72594536  0.32686995    -0.21700
F1621       F  0.17291222  0.72709587  0.31096464    -0.18900
F1622       F  0.18100498  0.81812932  0.30396758    -0.18900
F1623       F  0.20626768  0.81777492  0.32094178    -0.22800
F1624       F  0.17929877  0.82282085  0.33377621    -0.24400
C1625       C  0.15789663  0.83621135  0.48058813    -0.11200
C1626       C  0.15832382  0.81841032  0.48707786     0.11400
C1627       C  0.15753790  0.80380715  0.47465130    -0.03000
C1628       C  0.15504913  0.80772035  0.45610501    -0.05700
C1629       C  0.15380404  0.82564112  0.44977763    -0.16500
C1630       C  0.15662545  0.84010314  0.46208208     0.02400
C1631       C  0.15668699  0.81597329  0.50696387     0.12400
C1632       C  0.15944938  0.78428033  0.48088663     0.63000
H1633       H  0.15332134  0.79678816  0.44650729     0.12400
C1634       C  0.15805364  0.85982273  0.45645142     0.55100
H1635       H  0.15824524  0.84729135  0.49019697     0.08200
C1636       C  0.17072774  0.82069778  0.51919482    -0.05600
C1637       C  0.16672296  0.82152302  0.53779759    -0.06400
C1638       C  0.14931252  0.81773405  0.54432931    -0.15900
C1639       C  0.13573183  0.81164803  0.53230233    -0.01500
C1640       C  0.13953316  0.81135645  0.51370362    -0.09100
C1641       C  0.18974082  0.82505427  0.51270179     0.65200
H1642       H  0.17698926  0.82582416  0.54735092     0.10700
C1643       C  0.11747370  0.80511096  0.53911667     0.63600
H1644       H  0.12889329  0.80805159  0.50416045     0.08000
F1645       F  0.17122733  0.86842749  0.46665455    -0.19500
F1646       F  0.14165250  0.86827899  0.45942676    -0.15700
F1647       F  0.16291212  0.86178127  0.43848860    -0.19200
F1648       F  0.14604809  0.77982101  0.49313174    -0.22600
F1649       F  0.17613077  0.78198453  0.48902942    -0.24000
F1650       F  0.15824224  0.77227213  0.46656689    -0.18000
F1651       F  0.10759586  0.81949927  0.54576006    -0.20500
F1652       F  0.11997574  0.79248572  0.55273859    -0.21700
F1653       F  0.10748334  0.79696209  0.52550811    -0.18900
F1654       F  0.20166855  0.82711652  0.52702386    -0.18900
F1655       F  0.18977561  0.84096171  0.50285886    -0.22800
F1656       F  0.19604105  0.81116318  0.50192506    -0.24400
C1657       C  0.84099046  0.14181842  0.64271757    -0.11200
C1658       C  0.82278494  0.13865367  0.64701687     0.11400
C1659       C  0.81274992  0.12558771  0.63715516    -0.03000
C1660       C  0.82156961  0.11578266  0.62344238    -0.05700
C1661       C  0.83998135  0.11843130  0.61971900    -0.16500
C1662       C  0.84990779  0.13169959  0.62934304     0.02400
C1663       C  0.81462483  0.14955124  0.66176021     0.12400
C1664       C  0.79298204  0.12176052  0.64133967     0.63000
H1665       H  0.81426336  0.10565957  0.61573996     0.12400
C1666       C  0.86972336  0.13533977  0.62528393     0.55100
H1667       H  0.84822903  0.15217161  0.65016845     0.08200
C1668       C  0.81726394  0.14519996  0.68025714    -0.05600
C1669       C  0.80899796  0.15609992  0.69352037    -0.06400
C1670       C  0.79892159  0.17142716  0.68872641    -0.15900
C1671       C  0.79716869  0.17633839  0.67028226    -0.01500
C1672       C  0.80492552  0.16514032  0.65703003    -0.09100
C1673       C  0.82919510  0.12945340  0.68589021     0.65200
H1674       H  0.81049898  0.15287916  0.70774318     0.10700
C1675       C  0.78758085  0.19364831  0.66476079     0.63600
H1676       H  0.80366205  0.16854598  0.64282394     0.08000
F1677       F  0.87990276  0.12021632  0.62943442    -0.19500
F1678       F  0.87641785  0.14970136  0.63529390    -0.15700
F1679       F  0.87181482  0.13945528  0.60713813    -0.19200
F1680       F  0.78287427  0.13734092  0.63925660    -0.22600
F1681       F  0.79131354  0.11565136  0.65894421    -0.24000
F1682       F  0.78580416  0.10869060  0.62997324    -0.18000
F1683       F  0.79622407  0.20832075  0.67257394    -0.20500
F1684       F  0.76978239  0.19318044  0.67050071    -0.21700
F1685       F  0.78763298  0.19610069  0.64618216    -0.18900
F1686       F  0.82880221  0.12666183  0.70440609    -0.18900
F1687       F  0.84689633  0.13297826  0.68094357    -0.22800
F1688       F  0.82350655  0.11369663  0.67755265    -0.24400
C1689       C  0.80687481  0.13766288  0.38216646    -0.11200
C1690       C  0.81786266  0.14233763  0.36745251     0.11400
C1691       C  0.83665964  0.13895935  0.36810868    -0.03000
C1692       C  0.84366809  0.12968933  0.38314570    -0.05700
C1693       C  0.83255819  0.12399848  0.39752552    -0.16500
C1694       C  0.81386504  0.12848870  0.39732579     0.02400
C1695       C  0.80928031  0.15103385  0.35158323     0.12400
C1696       C  0.84918921  0.14509618  0.35297420     0.63000
H1697       H  0.85797022  0.12665555  0.38371486     0.12400
C1698       C  0.80114698  0.12317999  0.41258582     0.55100
H1699       H  0.79263009  0.14101787  0.38146218     0.08200
C1700       C  0.80102560  0.14087374  0.33763315    -0.05600
C1701       C  0.79357208  0.15014896  0.32273052    -0.06400
C1702       C  0.79371362  0.16919275  0.32168133    -0.15900
C1703       C  0.80147095  0.17926997  0.33623569    -0.01500
C1704       C  0.80922373  0.16989182  0.35083487    -0.09100
C1705       C  0.79965632  0.12038303  0.33885465     0.65200
H1706       H  0.78731356  0.14253797  0.31188346     0.10700
C1707       C  0.80137062  0.19980925  0.33683337     0.63600
H1708       H  0.81539371  0.17721507  0.36193980     0.08000
F1709       F  0.78334756  0.12752118  0.40868774    -0.19500
F1710       F  0.80595182  0.13227192  0.42822178    -0.15700
F1711       F  0.80197845  0.10470249  0.41552438    -0.19200
F1712       F  0.84897756  0.16376978  0.35174946    -0.22600
F1713       F  0.84359440  0.13786405  0.33665715    -0.24000
F1714       F  0.86688292  0.13971626  0.35594272    -0.18000
F1715       F  0.80745507  0.20644035  0.35327366    -0.20500
F1716       F  0.78393766  0.20615653  0.33430761    -0.21700
F1717       F  0.81267674  0.20651206  0.32350002    -0.18900
F1718       F  0.79205352  0.11296047  0.32342831    -0.18900
F1719       F  0.78892918  0.11566869  0.35344751    -0.22800
F1720       F  0.81663334  0.11289041  0.34114447    -0.24400
C1721       C  0.83627074  0.08959710  0.49095097    -0.11200
C1722       C  0.83697197  0.10687400  0.49865679     0.11400
C1723       C  0.83724093  0.12235895  0.48741531    -0.03000
C1724       C  0.83827195  0.11994533  0.46855322    -0.05700
C1725       C  0.83909511  0.10257393  0.46084088    -0.16500
C1726       C  0.83707398  0.08711113  0.47214367     0.02400
C1727       C  0.83949101  0.10797247  0.51848630     0.12400
C1728       C  0.83656539  0.14124204  0.49542455     0.63000
H1729       H  0.83934466  0.13164179  0.45976860     0.12400
C1730       C  0.83600274  0.06797997  0.46466296     0.55100
H1731       H  0.83587605  0.07795969  0.49989047     0.08200
C1732       C  0.82531430  0.10506806  0.53107590    -0.05600
C1733       C  0.82976411  0.10294548  0.54946099    -0.06400
C1734       C  0.84775595  0.10376259  0.55547804    -0.15900
C1735       C  0.86172678  0.10806801  0.54307699    -0.01500
C1736       C  0.85734301  0.10976224  0.52468289    -0.09100
C1737       C  0.80542531  0.10414842  0.52601973     0.65200
H1738       H  0.81910160  0.10018167  0.55916411     0.10700
C1739       C  0.88116797  0.11101470  0.54914634     0.63600
H1740       H  0.86798871  0.11194237  0.51483223     0.08000
F1741       F  0.82886565  0.05605140  0.47725801    -0.19500
F1742       F  0.85312296  0.06200914  0.46011382    -0.15700
F1743       F  0.82493499  0.06751479  0.44955442    -0.19200
F1744       F  0.85176086  0.14435055  0.50589509    -0.22600
F1745       F  0.82130836  0.14289878  0.50611874    -0.24000
F1746       F  0.83586030  0.15444508  0.48213371    -0.18000
F1747       F  0.88909072  0.09458375  0.55326994    -0.20500
F1748       F  0.88161782  0.12208395  0.56423684    -0.21700
F1749       F  0.89139356  0.11926766  0.53577230    -0.18900
F1750       F  0.79621209  0.11752724  0.53527546    -0.18900
F1751       F  0.79848145  0.08747690  0.53101786    -0.22800
F1752       F  0.80227234  0.10660179  0.50774986    -0.24400
C1753       C  0.82647760  0.61193308  0.16526845    -0.11200
C1754       C  0.81716440  0.60761221  0.18116218     0.11400
C1755       C  0.81798325  0.58983473  0.18818099    -0.03000
C1756       C  0.82965820  0.57731330  0.17989716    -0.05700
C1757       C  0.83954077  0.58167783  0.16417558    -0.16500
C1758       C  0.83726981  0.59914481  0.15624614     0.02400
C1759       C  0.80650412  0.62208162  0.19002050     0.12400
C1760       C  0.80608635  0.58401986  0.20392668     0.63000
H1761       H  0.83091800  0.56385289  0.18555960     0.12400
C1762       C  0.84527302  0.60423685  0.13796243     0.55100
H1763       H  0.82509220  0.62552128  0.15992052     0.08200
C1764       C  0.81449157  0.63416720  0.20252751    -0.05600
C1765       C  0.80366980  0.64771684  0.21028784    -0.06400
C1766       C  0.78527513  0.64963552  0.20578914    -0.15900
C1767       C  0.77725325  0.63730872  0.19335080    -0.01500
C1768       C  0.78819005  0.62386888  0.18548068    -0.09100
C1769       C  0.83445283  0.63294762  0.20734742     0.65200
H1770       H  0.80960246  0.65712915  0.21983551     0.10700
C1771       C  0.75715265  0.63768768  0.18894989     0.63600
H1772       H  0.78251210  0.61448212  0.17575348     0.08000
F1773       F  0.83838709  0.62043849  0.13155370    -0.19500
F1774       F  0.84113088  0.59102589  0.12534422    -0.15700
F1775       F  0.86383759  0.60617838  0.13935601    -0.19200
F1776       F  0.78809709  0.58554511  0.19899974    -0.22600
F1777       F  0.80926762  0.59483855  0.21883779    -0.24000
F1778       F  0.80920193  0.56622230  0.20889609    -0.18000
F1779       F  0.75193370  0.62290880  0.17867061    -0.20500
F1780       F  0.75303545  0.65314934  0.17923642    -0.21700
F1781       F  0.74718716  0.63735540  0.20479237    -0.18900
F1782       F  0.83916526  0.64507582  0.22081933    -0.18900
F1783       F  0.84477771  0.63676641  0.19222369    -0.22800
F1784       F  0.83861692  0.61574985  0.21342354    -0.24400
C1785       C  0.82601354  0.34639014  0.18146920    -0.11200
C1786       C  0.83483520  0.32977436  0.18376718     0.11400
C1787       C  0.85265137  0.32755631  0.17720094    -0.03000
C1788       C  0.86101504  0.34210802  0.16822219    -0.05700
C1789       C  0.85222301  0.35878097  0.16563443    -0.16500
C1790       C  0.83445004  0.36113968  0.17272580     0.02400
C1791       C  0.82492355  0.31462872  0.19257978     0.12400
C1792       C  0.86262228  0.30970041  0.17923790     0.63000
H1793       H  0.87454547  0.34042927  0.16287459     0.12400
C1794       C  0.82414919  0.37884172  0.17089904     0.55100
H1795       H  0.81234270  0.34763866  0.18657812     0.08200
C1796       C  0.82354820  0.31304718  0.21161479    -0.05600
C1797       C  0.81505560  0.29762017  0.21891096    -0.06400
C1798       C  0.80767149  0.28403410  0.20782501    -0.15900
C1799       C  0.80879522  0.28580975  0.18873628    -0.01500
C1800       C  0.81734142  0.30123959  0.18146335    -0.09100
C1801       C  0.83101190  0.32756367  0.22413442     0.65200
H1802       H  0.81376908  0.29620849  0.23344489     0.10700
C1803       C  0.80183816  0.27117157  0.17608938     0.63600
H1804       H  0.81843756  0.30290856  0.16694172     0.08000
F1805       F  0.83265926  0.39213976  0.18096937    -0.19500
F1806       F  0.80654929  0.37737570  0.17715658    -0.15700
F1807       F  0.82337492  0.38402299  0.15292117    -0.19200
F1808       F  0.85451109  0.29672535  0.16846906    -0.22600
F1809       F  0.86219022  0.30399221  0.19705654    -0.24000
F1810       F  0.88058561  0.31117575  0.17413661    -0.18000
F1811       F  0.78320896  0.26993720  0.17717358    -0.20500
F1812       F  0.80942698  0.25472200  0.18078856    -0.21700
F1813       F  0.80628132  0.27473526  0.15823243    -0.18900
F1814       F  0.82857560  0.32312270  0.24218070    -0.18900
F1815       F  0.82227796  0.34378687  0.22095496    -0.22800
F1816       F  0.84934008  0.32982969  0.22115217    -0.24400
C1817       C  0.87460534  0.45433900  0.15091367    -0.11200
C1818       C  0.85680294  0.45968821  0.15450424     0.11400
C1819       C  0.84302539  0.44651777  0.15625784    -0.03000
C1820       C  0.84766749  0.42816650  0.15432798    -0.05700
C1821       C  0.86549761  0.42272772  0.15052110    -0.16500
C1822       C  0.87934265  0.43603440  0.14913385     0.02400
C1823       C  0.85310166  0.47935786  0.15508632     0.12400
C1824       C  0.82351560  0.45185893  0.15982424     0.63000
H1825       H  0.83721240  0.41793305  0.15517975     0.12400
C1826       C  0.89908863  0.43116940  0.14613465     0.55100
H1827       H  0.88479381  0.46477850  0.14924346     0.08200
C1828       C  0.85842873  0.49024209  0.16994885    -0.05600
C1829       C  0.85753009  0.50916860  0.16815412    -0.06400
C1830       C  0.85194090  0.51720935  0.15192118    -0.15900
C1831       C  0.84547390  0.50636761  0.13755786    -0.01500
C1832       C  0.84621145  0.48748071  0.13937969    -0.09100
C1833       C  0.86592365  0.48195401  0.18720863     0.65200
H1834       H  0.86246911  0.51782778  0.17890836     0.10700
C1835       C  0.83831555  0.51477297  0.12022571     0.63600
H1836       H  0.84240544  0.47889912  0.12812134     0.08000
F1837       F  0.91040299  0.44587434  0.14897039    -0.19500
F1838       F  0.90159889  0.42534338  0.12855134    -0.15700
F1839       F  0.90422072  0.41766444  0.15805154    -0.19200
F1840       F  0.81673280  0.46128479  0.14515491    -0.22600
F1841       F  0.82255908  0.46269829  0.17502262    -0.24000
F1842       F  0.81258099  0.43688540  0.16268014    -0.18000
F1843       F  0.85232806  0.52275275  0.11072495    -0.20500
F1844       F  0.82551355  0.52777153  0.12433290    -0.21700
F1845       F  0.83023144  0.50199381  0.10915024    -0.18900
F1846       F  0.86827965  0.49481413  0.20062167    -0.18900
F1847       F  0.88252416  0.47409026  0.18380202    -0.22800
F1848       F  0.85417190  0.46889751  0.19369730    -0.24400
C1849       C  0.62292225  0.78888065  0.17413753    -0.11200
C1850       C  0.63960253  0.79763210  0.17654996     0.11400
C1851       C  0.64299102  0.81418384  0.16759076    -0.03000
C1852       C  0.62910350  0.82194087  0.15719779    -0.05700
C1853       C  0.61215162  0.81344539  0.15481845    -0.16500
C1854       C  0.60904098  0.79639592  0.16337481     0.02400
C1855       C  0.65347281  0.78887381  0.18821436     0.12400
C1856       C  0.66138648  0.82338262  0.16857245     0.63000
H1857       H  0.63159836  0.83480434  0.15063971     0.12400
C1858       C  0.59150921  0.78582067  0.16106547     0.55100
H1859       H  0.62090367  0.77600425  0.18087098     0.08200
C1860       C  0.65324945  0.79049889  0.20730919    -0.05600
C1861       C  0.66682496  0.78176201  0.21745026    -0.06400
C1862       C  0.68023376  0.77122199  0.20911511    -0.15900
C1863       C  0.68056359  0.76983202  0.18994848    -0.01500
C1864       C  0.66701441  0.77861784  0.17984869    -0.09100
C1865       C  0.63861703  0.80124683  0.21689860     0.65200
H1866       H  0.66674570  0.78263061  0.23207942     0.10700
C1867       C  0.69538242  0.75956602  0.18010071     0.63600
H1868       H  0.66678163  0.77746346  0.16524078     0.08000
F1869       F  0.57740925  0.79502246  0.16917677    -0.19500
F1870       F  0.59242101  0.76884706  0.16898293    -0.15700
F1871       F  0.58786415  0.78338885  0.14286134    -0.19200
F1872       F  0.67419951  0.81258656  0.16031502    -0.22600
F1873       F  0.66630497  0.82617211  0.18639817    -0.24000
F1874       F  0.66142207  0.84000810  0.15989585    -0.18000
F1875       F  0.69346481  0.74117762  0.18302001    -0.20500
F1876       F  0.71216401  0.76517594  0.18626831    -0.21700
F1877       F  0.69478379  0.76254040  0.16160699    -0.18900
F1878       F  0.64100708  0.80124352  0.23548282    -0.18900
F1879       F  0.62183047  0.79380238  0.21325636    -0.22800
F1880       F  0.63887275  0.81900806  0.21099664    -0.24400
C1881       C  0.37458232  0.79144274  0.18410417    -0.11200
C1882       C  0.36035865  0.78407355  0.17391705     0.11400
C1883       C  0.36081207  0.78507867  0.15480775    -0.03000
C1884       C  0.37549093  0.79392076  0.14649620    -0.05700
C1885       C  0.38968163  0.80152066  0.15666568    -0.16500
C1886       C  0.38945827  0.79999235  0.17578424     0.02400
C1887       C  0.34526487  0.77505576  0.18363776     0.12400
C1888       C  0.34565793  0.77719140  0.14331091     0.63000
H1889       H  0.37579005  0.79538204  0.13191031     0.12400
C1890       C  0.40457806  0.80766131  0.18739000     0.55100
H1891       H  0.37389037  0.79040532  0.19870613     0.08200
C1892       C  0.34678188  0.75706878  0.19004037    -0.05600
C1893       C  0.33171649  0.74906579  0.19850447    -0.06400
C1894       C  0.31551675  0.75862498  0.20105322    -0.15900
C1895       C  0.31403252  0.77664034  0.19473493    -0.01500
C1896       C  0.32907383  0.78463192  0.18614427    -0.09100
C1897       C  0.36429542  0.74649244  0.18805473     0.65200
H1898       H  0.33252530  0.73527379  0.20343833     0.10700
C1899       C  0.29655936  0.78716473  0.19674485     0.63600
H1900       H  0.32832372  0.79842920  0.18122660     0.08000
F1901       F  0.42037191  0.79830787  0.18403177    -0.19500
F1902       F  0.40081705  0.80612170  0.20567449    -0.15700
F1903       F  0.40716024  0.82579837  0.18348713    -0.19200
F1904       F  0.32992273  0.78686634  0.14612759    -0.22600
F1905       F  0.34268068  0.75927168  0.14787490    -0.24000
F1906       F  0.34971490  0.77787274  0.12503839    -0.18000
F1907       F  0.29336250  0.79052258  0.21485740    -0.20500
F1908       F  0.28228751  0.77727851  0.18968954    -0.21700
F1909       F  0.29726376  0.80358802  0.18771293    -0.18900
F1910       F  0.36234324  0.72869311  0.19359860    -0.18900
F1911       F  0.37765264  0.75441618  0.19850568    -0.22800
F1912       F  0.36981310  0.74639710  0.17018052    -0.24400
C1913       C  0.48174846  0.80457532  0.14189253    -0.11200
C1914       C  0.49122727  0.82087862  0.13954310     0.11400
C1915       C  0.48155692  0.83727218  0.13777219    -0.03000
C1916       C  0.46261706  0.83682392  0.13896288    -0.05700
C1917       C  0.45286454  0.82053737  0.14103493    -0.16500
C1918       C  0.46263765  0.80401399  0.14253328     0.02400
C1919       C  0.51131086  0.82053459  0.13834368     0.12400
C1920       C  0.49117865  0.85516836  0.13423787     0.63000
H1921       H  0.45518699  0.84938378  0.13780455     0.12400
C1922       C  0.45319856  0.78581043  0.14405155     0.55100
H1923       H  0.48953002  0.79221158  0.14289367     0.08200
C1924       C  0.52246060  0.82075593  0.15391107    -0.05600
C1925       C  0.54125121  0.82321050  0.15171677    -0.06400
C1926       C  0.54907431  0.82536011  0.13450635    -0.15900
C1927       C  0.53795589  0.82376310  0.11887551    -0.01500
C1928       C  0.51921785  0.82125015  0.12114570    -0.09100
C1929       C  0.51445937  0.81846388  0.17268911     0.65200
H1930       H  0.54994265  0.82393500  0.16349916     0.10700
C1931       C  0.54568359  0.82450496  0.09983788     0.63600
H1932       H  0.51039792  0.82058167  0.10944740     0.08000
F1933       F  0.44377337  0.78485469  0.16013614    -0.19500
F1934       F  0.46536057  0.77157705  0.14382277    -0.15700
F1935       F  0.44139311  0.78353453  0.12969778    -0.19200
F1936       F  0.49999014  0.85452802  0.11775951    -0.22600
F1937       F  0.50367481  0.85851467  0.14775769    -0.24000
F1938       F  0.47923953  0.86957914  0.13369495    -0.18000
F1939       F  0.53309026  0.81916834  0.08701710    -0.20500
F1940       F  0.56038897  0.81302994  0.09850402    -0.21700
F1941       F  0.55097276  0.84199660  0.09573447    -0.18900
F1942       F  0.52754971  0.81963216  0.18604865    -0.18900
F1943       F  0.50628712  0.80166121  0.17402433    -0.22800
F1944       F  0.50169443  0.83173706  0.17587876    -0.24400
C1945       C  0.61836916  0.16316976  0.83114056    -0.11200
C1946       C  0.63399988  0.15345717  0.82670871     0.11400
C1947       C  0.63610287  0.13547915  0.83286329    -0.03000
C1948       C  0.62153618  0.12711932  0.84173810    -0.05700
C1949       C  0.60554575  0.13657594  0.84588151    -0.16500
C1950       C  0.60428374  0.15523002  0.84127631     0.02400
C1951       C  0.64858274  0.16265298  0.81650734     0.12400
C1952       C  0.65391163  0.12543741  0.83059947     0.63000
H1953       H  0.62272013  0.11308933  0.84580702     0.12400
C1954       C  0.58897303  0.16710605  0.84804317     0.55100
H1955       H  0.61749440  0.17718410  0.82690279     0.08200
C1956       C  0.64937528  0.16218008  0.79740196    -0.05600
C1957       C  0.66492161  0.16898971  0.78878879    -0.06400
C1958       C  0.67922680  0.17667585  0.79870019    -0.15900
C1959       C  0.67801032  0.17783499  0.81782795    -0.01500
C1960       C  0.66252823  0.17084719  0.82638888    -0.09100
C1961       C  0.63372720  0.15481429  0.78626168     0.65200
H1962       H  0.66587855  0.16871033  0.77416491     0.10700
C1963       C  0.69329971  0.18551193  0.82926774     0.63600
H1964       H  0.66136231  0.17120895  0.84099403     0.08000
F1965       F  0.57315288  0.16301935  0.83899656    -0.19500
F1966       F  0.59261520  0.18530230  0.84533516    -0.15700
F1967       F  0.58654074  0.16444830  0.86642039    -0.19200
F1968       F  0.66747310  0.13453150  0.83977506    -0.22600
F1969       F  0.65846913  0.12435755  0.81250107    -0.24000
F1970       F  0.65304771  0.10801918  0.83746751    -0.18000
F1971       F  0.69526140  0.20384339  0.82604549    -0.20500
F1972       F  0.70927573  0.17672841  0.82511289    -0.21700
F1973       F  0.69008994  0.18326688  0.84759120    -0.18900
F1974       F  0.63727655  0.15557966  0.76788042    -0.18900
F1975       F  0.61837392  0.16494138  0.78960311    -0.22800
F1976       F  0.63035777  0.13696948  0.79081028    -0.24400
C1977       C  0.35232832  0.13762891  0.84152688    -0.11200
C1978       C  0.35732731  0.14442634  0.82457527     0.11400
C1979       C  0.37502063  0.14147715  0.81796058    -0.03000
C1980       C  0.38690996  0.13080723  0.82830379    -0.05700
C1981       C  0.38195149  0.12374351  0.84530857    -0.16500
C1982       C  0.36438562  0.12756318  0.85226746     0.02400
C1983       C  0.34405156  0.15590295  0.81490547     0.12400
C1984       C  0.38151982  0.15008690  0.80041783     0.63000
H1985       H  0.40035686  0.12808167  0.82320155     0.12400
C1986       C  0.35842801  0.12195148  0.87117189     0.55100
H1987       H  0.33883239  0.14059237  0.84639394     0.08200
C1988       C  0.33103344  0.14857064  0.80294642    -0.05600
C1989       C  0.31881854  0.16041736  0.79444083    -0.06400
C1990       C  0.31854388  0.17904624  0.79836112    -0.15900
C1991       C  0.33100218  0.18617507  0.81121090    -0.01500
C1992       C  0.34372594  0.17439278  0.81906330    -0.09100
C1993       C  0.32954186  0.12828648  0.79981720     0.65200
H1994       H  0.30902285  0.15511644  0.78490247     0.10700
C1995       C  0.33120556  0.20606055  0.81650827     0.63600
H1996       H  0.35349387  0.17945241  0.82876556     0.08000
F1997       F  0.35622952  0.10338007  0.87201634    -0.19500
F1998       F  0.34208574  0.12973816  0.87594301    -0.15700
F1999       F  0.37119115  0.12743585  0.88374639    -0.19200
F2000       F  0.38051807  0.16871651  0.80176932    -0.22600
F2001       F  0.37091438  0.14448273  0.78608394    -0.24000
F2002       F  0.39928039  0.14555303  0.79658185    -0.18000
F2003       F  0.31527762  0.21038324  0.82529190    -0.20500
F2004       F  0.33308461  0.21675796  0.80124803    -0.21700
F2005       F  0.34536401  0.21011136  0.82811979    -0.18900
F2006       F  0.31613925  0.12409738  0.78739742    -0.18900
F2007       F  0.32537044  0.11975133  0.81594444    -0.22800
F2008       F  0.34567684  0.12146081  0.79338541    -0.24400
C2009       C  0.47725926  0.10061199  0.85704057    -0.11200
C2010       C  0.48320211  0.11858141  0.85681140     0.11400
C2011       C  0.47050476  0.13284889  0.85626658    -0.03000
C2012       C  0.45197482  0.12855325  0.85755673    -0.05700
C2013       C  0.44603248  0.11052392  0.85918382    -0.16500
C2014       C  0.45884368  0.09622572  0.85827604     0.02400
C2015       C  0.50292270  0.12169984  0.85819882     0.12400
C2016       C  0.47658019  0.15238996  0.85430564     0.63000
H2017       H  0.44201911  0.13928625  0.85781106     0.12400
C2018       C  0.45338596  0.07636948  0.85869724     0.55100
H2019       H  0.48734093  0.08997919  0.85703942     0.08200
C2020       C  0.51182164  0.12089636  0.87512844    -0.05600
C2021       C  0.53075077  0.12193089  0.87548214    -0.06400
C2022       C  0.54103279  0.12252724  0.85951167    -0.15900
C2023       C  0.53211122  0.12319618  0.84252194    -0.01500
C2024       C  0.51304365  0.12312062  0.84222109    -0.09100
C2025       C  0.50149757  0.11756555  0.89263251     0.65200
H2026       H  0.53779395  0.12108560  0.88831867     0.10700
C2027       C  0.54250897  0.12286517  0.82482472     0.63600
H2028       H  0.50583576  0.12328515  0.82945608     0.08000
F2029       F  0.44861581  0.07143864  0.87611346    -0.19500
F2030       F  0.46742572  0.06525504  0.85325741    -0.15700
F2031       F  0.43897246  0.07334860  0.84711930    -0.19200
F2032       F  0.48592190  0.15445531  0.83823002    -0.22600
F2033       F  0.48779376  0.15713617  0.86851746    -0.24000
F2034       F  0.46205733  0.16420103  0.85411818    -0.18000
F2035       F  0.53109130  0.12126710  0.81004648    -0.20500
F2036       F  0.55426833  0.10832177  0.82459342    -0.21700
F2037       F  0.55221142  0.13872913  0.82290447    -0.18900
F2038       F  0.51260509  0.11894561  0.90766770    -0.18900
F2039       F  0.49416975  0.10032772  0.89245597    -0.22800
F2040       F  0.48771415  0.13003173  0.89450002    -0.24400
C2041       C  0.63286152  0.16278717  0.15602793    -0.11200
C2042       C  0.64176735  0.15298216  0.16962152     0.11400
C2043       C  0.63581966  0.13530837  0.17415526    -0.03000
C2044       C  0.62154245  0.12761465  0.16414491    -0.05700
C2045       C  0.61298756  0.13723465  0.15020091    -0.16500
C2046       C  0.61850530  0.15511407  0.14612671     0.02400
C2047       C  0.65721492  0.16159296  0.17910296     0.12400
C2048       C  0.64472631  0.12461104  0.18932320     0.63000
H2049       H  0.61716689  0.11387368  0.16686360     0.12400
C2050       C  0.60938151  0.16579407  0.13115231     0.55100
H2051       H  0.63745758  0.17640568  0.15307159     0.08200
C2052       C  0.67505539  0.16098198  0.17216062    -0.05600
C2053       C  0.68918534  0.16849322  0.18250403    -0.06400
C2054       C  0.68592029  0.17642083  0.19941672    -0.15900
C2055       C  0.66793081  0.17747279  0.20608825    -0.01500
C2056       C  0.65383683  0.17010231  0.19565795    -0.09100
C2057       C  0.67905252  0.15284639  0.15374089     0.65200
H2058       H  0.70293066  0.16832568  0.17742707     0.10700
C2059       C  0.66352896  0.18657162  0.22397310     0.63600
H2060       H  0.64000723  0.17059767  0.20048213     0.08000
F2061       F  0.61690279  0.18285560  0.12913773    -0.19500
F2062       F  0.59121041  0.16779614  0.13512139    -0.15700
F2063       F  0.61111388  0.15672139  0.11488818    -0.19200
F2064       F  0.64288057  0.13376498  0.20551544    -0.22600
F2065       F  0.66293063  0.12231219  0.18571756    -0.24000
F2066       F  0.63699423  0.10765495  0.19138685    -0.18000
F2067       F  0.64506362  0.18755038  0.22698346    -0.20500
F2068       F  0.67037611  0.20401858  0.22414881    -0.21700
F2069       F  0.67105988  0.17678403  0.23799140    -0.18900
F2070       F  0.69746338  0.15202765  0.15038412    -0.18900
F2071       F  0.67114145  0.16335692  0.14043516    -0.22800
F2072       F  0.67220954  0.13545439  0.15266321    -0.24400
C2073       C  0.38328647  0.14738690  0.17786737    -0.11200
C2074       C  0.36735737  0.13888950  0.18369819     0.11400
C2075       C  0.36554526  0.11989798  0.18225296    -0.03000
C2076       C  0.37950170  0.11010723  0.17395000    -0.05700
C2077       C  0.39525307  0.11861687  0.16745269    -0.16500
C2078       C  0.39763553  0.13749245  0.17026070     0.02400
C2079       C  0.35267723  0.15023066  0.19118532     0.12400
C2080       C  0.34878336  0.11006934  0.18908125     0.63000
H2081       H  0.37798931  0.09566149  0.17205304     0.12400
C2082       C  0.41495830  0.14729483  0.16510081     0.55100
H2083       H  0.38429041  0.16194598  0.17922580     0.08200
C2084       C  0.35346816  0.15724074  0.20895093    -0.05600
C2085       C  0.33861321  0.16708277  0.21542049    -0.06400
C2086       C  0.32328532  0.17037987  0.20462957    -0.15900
C2087       C  0.32259471  0.16348932  0.18675234    -0.01500
C2088       C  0.33749730  0.15360447  0.18028822    -0.09100
C2089       C  0.36996158  0.15448886  0.22095239     0.65200
H2090       H  0.33903533  0.17268173  0.22895393     0.10700
C2091       C  0.30605468  0.16590562  0.17479752     0.63600
H2092       H  0.33740680  0.14826108  0.16664678     0.08000
F2093       F  0.42922646  0.14039638  0.17506073    -0.19500
F2094       F  0.41398796  0.16567012  0.16863786    -0.15700
F2095       F  0.41834136  0.14514110  0.14683344    -0.19200
F2096       F  0.33406484  0.11447857  0.17841449    -0.22600
F2097       F  0.34523873  0.11495247  0.20678570    -0.24000
F2098       F  0.35091037  0.09146020  0.18861706    -0.18000
F2099       F  0.30420533  0.18390318  0.17004046    -0.20500
F2100       F  0.29073488  0.16022175  0.18395476    -0.21700
F2101       F  0.30732788  0.15590767  0.15901465    -0.18900
F2102       F  0.36717438  0.16098947  0.23828715    -0.18900
F2103       F  0.38463103  0.16359373  0.21371834    -0.22800
F2104       F  0.37401687  0.13627006  0.22224298    -0.24400
C2105       C  0.48770545  0.09189499  0.14402131    -0.11200
C2106       C  0.49392620  0.10984935  0.14400878     0.11400
C2107       C  0.48134175  0.12421515  0.14507487    -0.03000
C2108       C  0.46279890  0.12007895  0.14632669    -0.05700
C2109       C  0.45645486  0.10215461  0.14577968    -0.16500
C2110       C  0.46910072  0.08771901  0.14485629     0.02400
C2111       C  0.51354003  0.11325292  0.14105820     0.12400
C2112       C  0.48743005  0.14383939  0.14404563     0.63000
H2113       H  0.45300056  0.13093251  0.14685279     0.12400
C2114       C  0.46312126  0.06801104  0.14501974     0.55100
H2115       H  0.49759115  0.08115819  0.14284069     0.08200
C2116       C  0.52645455  0.11264651  0.15521249    -0.05600
C2117       C  0.54475782  0.11615412  0.15111001    -0.06400
C2118       C  0.55052979  0.11929806  0.13326899    -0.15900
C2119       C  0.53749225  0.11986213  0.11911277    -0.01500
C2120       C  0.51920626  0.11682793  0.12334617    -0.09100
C2121       C  0.52103607  0.10757882  0.17436574     0.65200
H2122       H  0.55487222  0.11546525  0.16169888     0.10700
C2123       C  0.54263394  0.12325232  0.09949023     0.63600
H2124       H  0.50911025  0.11680968  0.11270316     0.08000
F2125       F  0.47766636  0.05635454  0.14676121    -0.19500
F2126       F  0.45435052  0.06381938  0.12903285    -0.15700
F2127       F  0.45157798  0.06494882  0.15943999    -0.19200
F2128       F  0.49440270  0.14738691  0.12705303    -0.22600
F2129       F  0.50061252  0.14721178  0.15689098    -0.24000
F2130       F  0.47325789  0.15568036  0.14705944    -0.18000
F2131       F  0.54983733  0.10764645  0.09213861    -0.20500
F2132       F  0.55514987  0.13715213  0.09830274    -0.21700
F2133       F  0.52774959  0.12814740  0.08920118    -0.18900
F2134       F  0.53558320  0.10835625  0.18616778    -0.18900
F2135       F  0.51431872  0.09010089  0.17458483    -0.22800
F2136       F  0.50786831  0.11925522  0.18061062    -0.24400
C2137       C  0.16499628  0.58817259  0.18442017    -0.11200
C2138       C  0.17474343  0.59964762  0.17287331     0.11400
C2139       C  0.17574227  0.59580488  0.15416768    -0.03000
C2140       C  0.16625899  0.58071724  0.14752556    -0.05700
C2141       C  0.15616395  0.56943333  0.15903155    -0.16500
C2142       C  0.15533444  0.57321680  0.17781113     0.02400
C2143       C  0.18390695  0.61549572  0.18094923     0.12400
C2144       C  0.18686749  0.60747450  0.14137489     0.63000
H2145       H  0.16666647  0.57754848  0.13321925     0.12400
C2146       C  0.14409670  0.56265667  0.19144651     0.55100
H2147       H  0.16458237  0.59122276  0.19876933     0.08200
C2148       C  0.17441215  0.63144481  0.18550722    -0.05600
C2149       C  0.18384548  0.64545934  0.19425647    -0.06400
C2150       C  0.20227459  0.64386531  0.19872448    -0.15900
C2151       C  0.21182783  0.62789964  0.19374960    -0.01500
C2152       C  0.20232994  0.61398595  0.18492072    -0.09100
C2153       C  0.15428701  0.63336860  0.18174251     0.65200
H2154       H  0.17671564  0.65763591  0.19816427     0.10700
C2155       C  0.23165323  0.62494561  0.19841222     0.63600
H2156       H  0.20910206  0.60149780  0.18137426     0.08000
F2157       F  0.13226274  0.57436308  0.19996398    -0.19500
F2158       F  0.15547374  0.55521157  0.20431315    -0.15700
F2159       F  0.13396578  0.54887720  0.18389528    -0.19200
F2160       F  0.20501980  0.60587397  0.14559868    -0.22600
F2161       F  0.18182619  0.62541949  0.14289524    -0.24000
F2162       F  0.18455774  0.60235021  0.12350554    -0.18000
F2163       F  0.23754942  0.60786653  0.19348849    -0.20500
F2164       F  0.23421370  0.62677349  0.21685914    -0.21700
F2165       F  0.24227206  0.63737295  0.18933432    -0.18900
F2166       F  0.14822465  0.65074471  0.18519278    -0.18900
F2167       F  0.14469802  0.62154624  0.19264576    -0.22800
F2168       F  0.15061734  0.62948113  0.16381372    -0.24400
C2169       C  0.18598932  0.32224601  0.15231495    -0.11200
C2170       C  0.18612214  0.32674771  0.17068883     0.11400
C2171       C  0.17881288  0.34339197  0.17659723    -0.03000
C2172       C  0.17094400  0.35486215  0.16363850    -0.05700
C2173       C  0.17020867  0.35004850  0.14525375    -0.16500
C2174       C  0.17800013  0.33357892  0.13938650     0.02400
C2175       C  0.19468045  0.31378780  0.18317912     0.12400
C2176       C  0.17922555  0.34889254  0.19641493     0.63000
H2177       H  0.16511109  0.36764117  0.16778588     0.12400
C2178       C  0.17832020  0.32811548  0.11959378     0.55100
H2179       H  0.19211238  0.30958212  0.14823132     0.08200
C2180       C  0.18556509  0.29802051  0.18908468    -0.05600
C2181       C  0.19498645  0.28568253  0.19998921    -0.06400
C2182       C  0.21330181  0.28829278  0.20434853    -0.15900
C2183       C  0.22249644  0.30402963  0.19817000    -0.01500
C2184       C  0.21286515  0.31659789  0.18769067    -0.09100
C2185       C  0.16628781  0.29385430  0.18321179     0.65200
H2186       H  0.18828077  0.27349016  0.20466182     0.10700
C2187       C  0.24225632  0.30772643  0.20262271     0.63600
H2188       H  0.21956756  0.32857995  0.18249302     0.08000
F2189       F  0.16097878  0.32398849  0.11389133    -0.19500
F2190       F  0.18903467  0.31303665  0.11673395    -0.15700
F2191       F  0.18519713  0.34211450  0.10919938    -0.19200
F2192       F  0.19689853  0.34969943  0.20250620    -0.22600
F2193       F  0.16978822  0.33639343  0.20668008    -0.24000
F2194       F  0.17147347  0.36572255  0.19912636    -0.18000
F2195       F  0.25314224  0.29546633  0.19365397    -0.20500
F2196       F  0.24506142  0.30626297  0.22107890    -0.21700
F2197       F  0.24753121  0.32494635  0.19737286    -0.18900
F2198       F  0.15933604  0.27889665  0.19214339    -0.18900
F2199       F  0.16596174  0.29030530  0.16485340    -0.22800
F2200       F  0.15513182  0.30840543  0.18679374    -0.24400
C2201       C  0.15961493  0.44452872  0.11945026    -0.11200
C2202       C  0.15974783  0.44926148  0.13780474     0.11400
C2203       C  0.16114698  0.43566870  0.15118703    -0.03000
C2204       C  0.16123971  0.41750979  0.14566359    -0.05700
C2205       C  0.16022921  0.41266753  0.12728330    -0.16500
C2206       C  0.16049109  0.42640363  0.11387408     0.02400
C2207       C  0.15626573  0.46837516  0.14243607     0.12400
C2208       C  0.16200969  0.44027165  0.17119750     0.63000
H2209       H  0.16130093  0.40692153  0.15581174     0.12400
C2210       C  0.16225460  0.42215238  0.09386727     0.55100
H2211       H  0.15837571  0.45520975  0.10946717     0.08200
C2212       C  0.16932949  0.48218027  0.13989021    -0.05600
C2213       C  0.16396382  0.50028815  0.14215830    -0.06400
C2214       C  0.14602262  0.50474454  0.14644585    -0.15900
C2215       C  0.13327926  0.49083770  0.15002182    -0.01500
C2216       C  0.13865608  0.47281162  0.14778030    -0.09100
C2217       C  0.18865647  0.47782677  0.13443304     0.65200
H2218       H  0.17348044  0.51115706  0.13956447     0.10700
C2219       C  0.11404776  0.49489560  0.15601141     0.63600
H2220       H  0.12887414  0.46198288  0.14940858     0.08000
F2221       F  0.16590539  0.43755666  0.08379466    -0.19500
F2222       F  0.14635211  0.41472444  0.08744227    -0.15700
F2223       F  0.17634319  0.41013759  0.09121806    -0.19200
F2224       F  0.14552982  0.44696080  0.17690072    -0.22600
F2225       F  0.17525357  0.45315246  0.17424589    -0.24000
F2226       F  0.16610599  0.42523320  0.18161547    -0.18000
F2227       F  0.10421558  0.50182320  0.14169396    -0.20500
F2228       F  0.11426539  0.50728696  0.17002964    -0.21700
F2229       F  0.10525790  0.47946960  0.16209807    -0.18900
F2230       F  0.19934931  0.49322016  0.13372327    -0.18900
F2231       F  0.18892894  0.46988520  0.11752216    -0.22800
F2232       F  0.19624408  0.46606045  0.14683802    -0.24400
C2233       C  0.32471482  0.29497635  0.12322124    -0.11200
C2234       C  0.33400792  0.28822485  0.13832435     0.11400
C2235       C  0.35306627  0.28979012  0.13927928    -0.03000
C2236       C  0.36216518  0.29888945  0.12526965    -0.05700
C2237       C  0.35287416  0.30612677  0.11033872    -0.16500
C2238       C  0.33380033  0.30405055  0.10913805     0.02400
C2239       C  0.32334327  0.27936439  0.15284871     0.12400
C2240       C  0.36372023  0.28196494  0.15504611     0.63000
H2241       H  0.37672910  0.30046155  0.12587699     0.12400
C2242       C  0.32294247  0.31180080  0.09346942     0.55100
H2243       H  0.31016992  0.29319797  0.12268720     0.08200
C2244       C  0.31479188  0.28942108  0.16664404    -0.05600
C2245       C  0.30500334  0.28007356  0.18005438    -0.06400
C2246       C  0.30316263  0.26109412  0.17987479    -0.15900
C2247       C  0.31141891  0.25108622  0.16555993    -0.01500
C2248       C  0.32139435  0.26054178  0.15234481    -0.09100
C2249       C  0.31565333  0.30997581  0.16689949     0.65200
H2250       H  0.29851099  0.28764764  0.19075646     0.10700
C2251       C  0.30957988  0.23063697  0.16372778     0.63600
H2252       H  0.32785940  0.25331158  0.14137773     0.08000
F2253       F  0.30449171  0.31049589  0.09645000    -0.19500
F2254       F  0.32684652  0.30240190  0.07778580    -0.15700
F2255       F  0.32711123  0.32992262  0.09110987    -0.19200
F2256       F  0.36098111  0.26347814  0.15601978    -0.22600
F2257       F  0.35815427  0.28977805  0.17107132    -0.24000
F2258       F  0.38212634  0.28501742  0.15323238    -0.18000
F2259       F  0.31694218  0.22433543  0.14770359    -0.20500
F2260       F  0.29149848  0.22573068  0.16389088    -0.21700
F2261       F  0.31858211  0.22218256  0.17779489    -0.18900
F2262       F  0.30714274  0.31709976  0.18196192    -0.18900
F2263       F  0.30719428  0.31680719  0.15167119    -0.22800
F2264       F  0.33344841  0.31576009  0.16707011    -0.24400
C2265       C  0.31638430  0.30215425  0.87347883    -0.11200
C2266       C  0.32643165  0.29609193  0.85857848     0.11400
C2267       C  0.34539065  0.29883204  0.85816731    -0.03000
C2268       C  0.35383154  0.30667327  0.87334186    -0.05700
C2269       C  0.34385536  0.31223826  0.88850820    -0.16500
C2270       C  0.32478503  0.31037745  0.88847676     0.02400
C2271       C  0.31653918  0.28717793  0.84351073     0.12400
C2272       C  0.35652001  0.29407189  0.84156698     0.63000
H2273       H  0.36834041  0.30880491  0.87339420     0.12400
C2274       C  0.31334423  0.31759531  0.90389249     0.55100
H2275       H  0.30183560  0.30033670  0.87323634     0.08200
C2276       C  0.31232520  0.26851264  0.84392547    -0.05600
C2277       C  0.30246554  0.26105117  0.82945609    -0.06400
C2278       C  0.29615563  0.27169848  0.81492247    -0.15900
C2279       C  0.30015225  0.29055268  0.81476262    -0.01500
C2280       C  0.31039844  0.29790076  0.82910516    -0.09100
C2281       C  0.31783491  0.25663724  0.85982883     0.65200
H2282       H  0.29918542  0.24676396  0.82967561     0.10700
C2283       C  0.29384643  0.30294855  0.79961077     0.63600
H2284       H  0.31350757  0.31223186  0.82938450     0.08000
F2285       F  0.31670195  0.30770704  0.91941807    -0.19500
F2286       F  0.29502621  0.31644522  0.90008779    -0.15700
F2287       F  0.31749685  0.33560499  0.90697397    -0.19200
F2288       F  0.35066686  0.30421451  0.82696948    -0.22600
F2289       F  0.35465580  0.27591583  0.83750025    -0.24000
F2290       F  0.37474829  0.29762541  0.84414146    -0.18000
F2291       F  0.27520325  0.30451738  0.80009006    -0.20500
F2292       F  0.29914827  0.29602616  0.78305969    -0.21700
F2293       F  0.30108717  0.32017544  0.80116799    -0.18900
F2294       F  0.31250677  0.23881763  0.85746742    -0.18900
F2295       F  0.30987091  0.26295806  0.87550620    -0.22800
F2296       F  0.33641185  0.25689579  0.86194250    -0.24400
C2297       C  0.37766533  0.31124780  0.98141891    -0.11200
C2298       C  0.36093120  0.31225714  0.99023968     0.11400
C2299       C  0.34488166  0.31430390  0.97992059    -0.03000
C2300       C  0.34637163  0.31653679  0.96102216    -0.05700
C2301       C  0.36331291  0.31716302  0.95243748    -0.16500
C2302       C  0.37917051  0.31355261  0.96261658     0.02400
C2303       C  0.36137270  0.31461979  0.01018465     0.12400
C2304       C  0.32638140  0.31476993  0.98886440     0.63000
H2305       H  0.33437987  0.31898417  0.95295406     0.12400
C2306       C  0.39768381  0.31242179  0.95381877     0.55100
H2307       H  0.38976100  0.30980869  0.98958835     0.08200
C2308       C  0.36406826  0.30007149  0.02236499    -0.05600
C2309       C  0.36653361  0.30398004  0.04084389    -0.06400
C2310       C  0.36741331  0.32186411  0.04724766    -0.15900
C2311       C  0.36488928  0.33643167  0.03498868    -0.01500
C2312       C  0.36169939  0.33246681  0.01665349    -0.09100
C2313       C  0.36506995  0.28061458  0.01585003     0.65200
H2314       H  0.36856406  0.29304823  0.05040879     0.10700
C2315       C  0.36562564  0.35606227  0.04105238     0.63600
H2316       H  0.36015548  0.34337200  0.00695828     0.08000
F2317       F  0.39690238  0.30120073  0.93886941    -0.19500
F2318       F  0.41050999  0.30546220  0.96559054    -0.15700
F2319       F  0.40333536  0.32946377  0.94854205    -0.19200
F2320       F  0.32522814  0.32943340  0.00038807    -0.22600
F2321       F  0.32360302  0.29908000  0.99866852    -0.24000
F2322       F  0.31258341  0.31616380  0.97625062    -0.18000
F2323       F  0.38315529  0.36055667  0.04584612    -0.20500
F2324       F  0.35429255  0.35865294  0.05570377    -0.21700
F2325       F  0.36022316  0.36777872  0.02744172    -0.18900
F2326       F  0.36648688  0.26853490  0.03012602    -0.18900
F2327       F  0.38005746  0.27844497  0.00490379    -0.22800
F2328       F  0.34972013  0.27622269  0.00612805    -0.24400
C2329       C  0.12917597  0.29511443  0.31695770    -0.11200
C2330       C  0.14665522  0.29581541  0.32421364     0.11400
C2331       C  0.15022552  0.30695361  0.33930394    -0.03000
C2332       C  0.13583007  0.31667923  0.34703255    -0.05700
C2333       C  0.11800101  0.31589718  0.34008491    -0.16500
C2334       C  0.11467073  0.30487966  0.32454425     0.02400
C2335       C  0.16112413  0.28526402  0.31512629     0.12400
C2336       C  0.16920165  0.30856621  0.34716930     0.63000
H2337       H  0.13856578  0.32499388  0.35875523     0.12400
C2338       C  0.09619887  0.30337292  0.31557977     0.55100
H2339       H  0.12704595  0.28669773  0.30515695     0.08200
C2340       C  0.16391657  0.26668892  0.31874077    -0.05600
C2341       C  0.17792952  0.25764865  0.30958669    -0.06400
C2342       C  0.18873876  0.26636211  0.29647786    -0.15900
C2343       C  0.18553365  0.28497180  0.29259189    -0.01500
C2344       C  0.17174935  0.29404946  0.30209538    -0.09100
C2345       C  0.15178749  0.25636373  0.33180134     0.65200
H2346       H  0.18015037  0.24340520  0.31222123     0.10700
C2347       C  0.19658010  0.29543937  0.27873332     0.63600
H2348       H  0.16896256  0.30817351  0.29932308     0.08000
F2349       F  0.08411162  0.29512245  0.32725389    -0.19500
F2350       F  0.09672793  0.29305296  0.29996270    -0.15700
F2351       F  0.09003036  0.32039999  0.31083508    -0.19200
F2352       F  0.18097078  0.31512666  0.33418396    -0.22600
F2353       F  0.17517467  0.29180289  0.35291085    -0.24000
F2354       F  0.16979478  0.32022146  0.36181198    -0.18000
F2355       F  0.19269688  0.28921948  0.26152069    -0.20500
F2356       F  0.21484620  0.29336630  0.28225654    -0.21700
F2357       F  0.19277136  0.31378401  0.27911284    -0.18900
F2358       F  0.15716712  0.23853099  0.33378947    -0.18900
F2359       F  0.13419647  0.25637946  0.32542222    -0.22800
F2360       F  0.15215346  0.26438732  0.34867392    -0.24400
C2361       C  0.87909124  0.27204641  0.33811214    -0.11200
C2362       C  0.86590245  0.28310583  0.33009651     0.11400
C2363       C  0.86641818  0.30202944  0.33283079    -0.03000
C2364       C  0.88086216  0.30942296  0.34277109    -0.05700
C2365       C  0.89441972  0.29847865  0.35039098    -0.16500
C2366       C  0.89335635  0.27941208  0.34843730     0.02400
C2367       C  0.85141853  0.27444596  0.31920982     0.12400
C2368       C  0.85152269  0.31427001  0.32566648     0.63000
H2369       H  0.88162306  0.32392316  0.34479818     0.12400
C2370       C  0.90665704  0.26688889  0.35783596     0.55100
H2371       H  0.87803851  0.25754353  0.33622773     0.08200
C2372       C  0.85383273  0.27026031  0.30069717    -0.05600
C2373       C  0.83950182  0.26201105  0.29125019    -0.06400
C2374       C  0.82310221  0.25756889  0.29981506    -0.15900
C2375       C  0.82059469  0.26219119  0.31831022    -0.01500
C2376       C  0.83496876  0.27041664  0.32772071    -0.09100
C2377       C  0.87159392  0.27418348  0.29109265     0.65200
H2378       H  0.84124105  0.25840332  0.27716145     0.10700
C2379       C  0.80284980  0.25880465  0.32813317     0.63600
H2380       H  0.83354644  0.27369558  0.34193127     0.08000
F2381       F  0.92386051  0.26956994  0.35102536    -0.19500
F2382       F  0.90218903  0.24884322  0.35536280    -0.15700
F2383       F  0.90667793  0.27034443  0.37623189    -0.19200
F2384       F  0.83537891  0.31007091  0.33414544    -0.22600
F2385       F  0.84945137  0.31197549  0.30722724    -0.24000
F2386       F  0.85526227  0.33236130  0.32881615    -0.18000
F2387       F  0.80094299  0.24058236  0.33171181    -0.20500
F2388       F  0.78845480  0.26461903  0.31766758    -0.21700
F2389       F  0.80212990  0.26792352  0.34446804    -0.18900
F2390       F  0.87096180  0.26931184  0.27301922    -0.18900
F2391       F  0.88540713  0.26456220  0.29923268    -0.22800
F2392       F  0.87556303  0.29244794  0.29198366    -0.24400
C2393       C  0.98492314  0.31742759  0.34091633    -0.11200
C2394       C  0.99663160  0.31893361  0.35581274     0.11400
C2395       C  0.98954673  0.31802051  0.37357364    -0.03000
C2396       C  0.97085605  0.31548010  0.37582571    -0.05700
C2397       C  0.95895852  0.31454664  0.36101808    -0.16500
C2398       C  0.96605186  0.31536348  0.34319282     0.02400
C2399       C  0.01616100  0.32262582  0.35267405     0.12400
C2400       C  0.00155078  0.32065972  0.39009967     0.63000
H2401       H  0.96519967  0.31508296  0.38933927     0.12400
C2402       C  0.95377422  0.31494113  0.32672233     0.55100
H2403       H  0.99068309  0.31839371  0.32748014     0.08200
C2404       C  0.02898566  0.30858791  0.35083769    -0.05600
C2405       C  0.04755411  0.31301943  0.35136384    -0.06400
C2406       C  0.05351168  0.33105257  0.35309219    -0.15900
C2407       C  0.04048577  0.34520634  0.35274000    -0.01500
C2408       C  0.02198576  0.34066504  0.35278382    -0.09100
C2409       C  0.02294780  0.28909423  0.34837369     0.65200
H2410       H  0.05753630  0.30232948  0.35102999     0.10700
C2411       C  0.04587548  0.36504084  0.35196785     0.63600
H2412       H  0.01184676  0.35120691  0.35359270     0.08000
F2413       F  0.96334368  0.31745847  0.31081586    -0.19500
F2414       F  0.94099839  0.32855325  0.32792296    -0.15700
F2415       F  0.94512831  0.29835515  0.32573313    -0.19200
F2416       F  0.00865913  0.33798512  0.39001845    -0.22600
F2417       F  0.01557572  0.30832327  0.38998269    -0.24000
F2418       F  0.99205137  0.31835915  0.40608230    -0.18000
F2419       F  0.03138621  0.37594299  0.34727125    -0.20500
F2420       F  0.05921181  0.36753715  0.33907214    -0.21700
F2421       F  0.05213279  0.37064651  0.36868020    -0.18900
F2422       F  0.03751031  0.27751180  0.34642187    -0.18900
F2423       F  0.01234801  0.28775492  0.33300111    -0.22800
F2424       F  0.01294938  0.28344562  0.36314461    -0.24400
C2425       C  0.31833543  0.08654469  0.32177151    -0.11200
C2426       C  0.32179841  0.10468480  0.32600246     0.11400
C2427       C  0.33319944  0.10901662  0.34068447    -0.03000
C2428       C  0.34118950  0.09484736  0.35044464    -0.05700
C2429       C  0.33829361  0.07642988  0.34611332    -0.16500
C2430       C  0.32652122  0.07220323  0.33135096     0.02400
C2431       C  0.31334856  0.11896257  0.31472811     0.12400
C2432       C  0.33693837  0.12856103  0.34604538     0.63000
H2433       H  0.34982558  0.09830125  0.36173879     0.12400
C2434       C  0.32269842  0.05295035  0.32519308     0.55100
H2435       H  0.30924412  0.08377782  0.31060799     0.08200
C2436       C  0.32047728  0.12392335  0.29768651    -0.05600
C2437       C  0.31204467  0.13792410  0.28798155    -0.06400
C2438       C  0.29696931  0.14727977  0.29487461    -0.15900
C2439       C  0.29010391  0.14245140  0.31225467    -0.01500
C2440       C  0.29821880  0.12799120  0.32160195    -0.09100
C2441       C  0.33697442  0.11451769  0.28984070     0.65200
H2442       H  0.31715782  0.14154214  0.27473711     0.10700
C2443       C  0.27478188  0.15269796  0.32138567     0.63600
H2444       H  0.29298138  0.12371943  0.33461365     0.08000
F2445       F  0.33874918  0.04457684  0.32055553    -0.19500
F2446       F  0.31153097  0.05241736  0.31014293    -0.15700
F2447       F  0.31412738  0.04340602  0.33884037    -0.19200
F2448       F  0.32112385  0.13665576  0.35180927    -0.22600
F2449       F  0.34373100  0.13808700  0.33142884    -0.24000
F2450       F  0.34941062  0.12978215  0.35998402    -0.18000
F2451       F  0.25862484  0.14929080  0.31256457    -0.20500
F2452       F  0.27842231  0.17108377  0.32115557    -0.21700
F2453       F  0.27263893  0.14758065  0.33928941    -0.18900
F2454       F  0.34241236  0.12227030  0.27366093    -0.18900
F2455       F  0.33305415  0.09650852  0.28661780    -0.22800
F2456       F  0.35129088  0.11563867  0.30184624    -0.24400
C2457       C  0.30733118  0.82686714  0.34013373    -0.11200
C2458       C  0.30539498  0.83064197  0.32167629     0.11400
C2459       C  0.31047046  0.84783457  0.31490519    -0.03000
C2460       C  0.31984611  0.85975503  0.32645730    -0.05700
C2461       C  0.32318768  0.85533095  0.34467887    -0.16500
C2462       C  0.31571056  0.83918001  0.35193684     0.02400
C2463       C  0.29803526  0.81613651  0.30992699     0.12400
C2464       C  0.30556276  0.85365834  0.29581380     0.63000
H2465       H  0.32477026  0.87256904  0.32127898     0.12400
C2466       C  0.31608244  0.83497408  0.37203928     0.55100
H2467       H  0.30248916  0.81396219  0.34519714     0.08200
C2468       C  0.30916091  0.80214729  0.30312797    -0.05600
C2469       C  0.30116914  0.78824192  0.29286764    -0.06400
C2470       C  0.28243021  0.78765026  0.28962466    -0.15900
C2471       C  0.27126923  0.80176450  0.29663170    -0.01500
C2472       C  0.27940692  0.81573609  0.30670279    -0.09100
C2473       C  0.32935900  0.80180334  0.30696792     0.65200
H2474       H  0.30952990  0.77746080  0.28757767     0.10700
C2475       C  0.25090352  0.80241730  0.29358235     0.63600
H2476       H  0.27123028  0.82640732  0.31249221     0.08000
F2477       F  0.33291743  0.82839615  0.37682051    -0.19500
F2478       F  0.30319747  0.82209921  0.37654635    -0.15700
F2479       F  0.31234404  0.85038990  0.38197207    -0.19200
F2480       F  0.28693435  0.85389650  0.29400055    -0.22600
F2481       F  0.31273474  0.84174599  0.28334159    -0.24000
F2482       F  0.31198067  0.87084253  0.29187629    -0.18000
F2483       F  0.24263992  0.78849248  0.30300847    -0.20500
F2484       F  0.24705230  0.80089915  0.27532058    -0.21700
F2485       F  0.24344182  0.81850877  0.29956683    -0.18900
F2486       F  0.33779258  0.78732771  0.29863154    -0.18900
F2487       F  0.33229494  0.80032482  0.32538572    -0.22800
F2488       F  0.33732439  0.81756289  0.30072106    -0.24400
C2489       C  0.32852020  0.94709162  0.35974277    -0.11200
C2490       C  0.34556455  0.95536436  0.35822450     0.11400
C2491       C  0.36133235  0.94459524  0.35703725    -0.03000
C2492       C  0.35946668  0.92573262  0.35791152    -0.05700
C2493       C  0.34251071  0.91740937  0.35998965    -0.16500
C2494       C  0.32665294  0.92813475  0.36046708     0.02400
C2495       C  0.34667741  0.97526604  0.36017350     0.12400
C2496       C  0.38009471  0.95293091  0.35533733     0.63000
H2497       H  0.37139442  0.91724271  0.35747906     0.12400
C2498       C  0.30798382  0.91972590  0.36230887     0.55100
H2499       H  0.31671721  0.95568795  0.36082788     0.08200
C2500       C  0.34382954  0.98728099  0.34557970    -0.05600
C2501       C  0.34607089  0.00595410  0.34860304    -0.06400
C2502       C  0.35071028  0.01288179  0.36573799    -0.15900
C2503       C  0.35244486  0.00070515  0.38060995    -0.01500
C2504       C  0.35040705  0.98207596  0.37742988    -0.09100
C2505       C  0.33838543  0.98039639  0.32698940     0.65200
H2506       H  0.34453188  0.01526031  0.33742611     0.10700
C2507       C  0.35612667  0.00701340  0.39986424     0.63600
H2508       H  0.35205460  0.97248909  0.38841606     0.08000
F2509       F  0.30399601  0.90989375  0.34690258    -0.19500
F2510       F  0.29468594  0.93272734  0.36445489    -0.15700
F2511       F  0.30744239  0.90839185  0.37721434    -0.19200
F2512       F  0.38401703  0.96313054  0.37050311    -0.22600
F2513       F  0.38088077  0.96391991  0.34022496    -0.24000
F2514       F  0.39339048  0.93985751  0.35363312    -0.18000
F2515       F  0.35345813  0.99325399  0.41233568    -0.20500
F2516       F  0.34454823  0.02099793  0.40434115    -0.21700
F2517       F  0.37388300  0.01274481  0.40146031    -0.18900
F2518       F  0.33644192  0.99438356  0.31465706    -0.18900
F2519       F  0.32202985  0.97135612  0.32812846    -0.22800
F2520       F  0.35134148  0.96866216  0.32043060    -0.24400
C2521       C  0.33324123  0.64793804  0.12703980    -0.11200
C2522       C  0.32286305  0.63816523  0.13959506     0.11400
C2523       C  0.32171020  0.61908070  0.13826831    -0.03000
C2524       C  0.33198527  0.61026783  0.12490441    -0.05700
C2525       C  0.34266415  0.62001024  0.11256580    -0.16500
C2526       C  0.34323448  0.63914700  0.11344969     0.02400
C2527       C  0.31271120  0.64843438  0.15350039     0.12400
C2528       C  0.30943697  0.60816082  0.15068042     0.63000
H2529       H  0.33167025  0.59564421  0.12386269     0.12400
C2530       C  0.35477698  0.65014454  0.10047496     0.55100
H2531       H  0.33352248  0.66255957  0.12809807     0.08200
C2532       C  0.32056179  0.65343548  0.17027753    -0.05600
C2533       C  0.30986196  0.66281268  0.18293578    -0.06400
C2534       C  0.29199787  0.66773725  0.17893919    -0.15900
C2535       C  0.28464144  0.66391198  0.16165242    -0.01500
C2536       C  0.29509414  0.65400679  0.14927335    -0.09100
C2537       C  0.34020898  0.64920636  0.17458963     0.65200
H2538       H  0.31533918  0.66639572  0.19605257     0.10700
C2539       C  0.26618876  0.67104683  0.15604884     0.63600
H2540       H  0.28968115  0.65064886  0.13606786     0.08000
F2541       F  0.35414377  0.66847392  0.10431382    -0.19500
F2542       F  0.34867587  0.64771568  0.08295851    -0.15700
F2543       F  0.37260779  0.64460582  0.10166070    -0.19200
F2544       F  0.29170705  0.61367136  0.14845652    -0.22600
F2545       F  0.31439031  0.61066953  0.16852661    -0.24000
F2546       F  0.31026864  0.58981424  0.14698387    -0.18000
F2547       F  0.26200492  0.66658421  0.13834045    -0.20500
F2548       F  0.26603480  0.68971210  0.15751606    -0.21700
F2549       F  0.25287743  0.66392007  0.16705898    -0.18900
F2550       F  0.34522970  0.65574012  0.19141304    -0.18900
F2551       F  0.35132835  0.65713827  0.16179188    -0.22800
F2552       F  0.34299996  0.63072789  0.17449202    -0.24400
C2553       C  0.31283745  0.62156359  0.86716100    -0.11200
C2554       C  0.31518183  0.64029390  0.86894621     0.11400
C2555       C  0.32562271  0.64721812  0.88346758    -0.03000
C2556       C  0.33427159  0.63491105  0.89521188    -0.05700
C2557       C  0.33295197  0.61611188  0.89262842    -0.16500
C2558       C  0.32174783  0.60925329  0.87861614     0.02400
C2559       C  0.30706664  0.65216389  0.85484981     0.12400
C2560       C  0.32784705  0.66746592  0.88629004     0.63000
H2561       H  0.34260273  0.63988257  0.90620761     0.12400
C2562       C  0.31892771  0.58906275  0.87588029     0.55100
H2563       H  0.30438056  0.61666183  0.85622992     0.08200
C2564       C  0.31535329  0.65451951  0.83772607    -0.05600
C2565       C  0.30679132  0.66559796  0.82476679    -0.06400
C2566       C  0.29002343  0.67381293  0.82823014    -0.15900
C2567       C  0.28178507  0.67146774  0.84544254    -0.01500
C2568       C  0.29046838  0.66054778  0.85844682    -0.09100
C2569       C  0.33296963  0.64500754  0.83308485     0.65200
H2570       H  0.31291488  0.66756302  0.81159803     0.10700
C2571       C  0.26414291  0.68079940  0.85027361     0.63600
H2572       H  0.28427199  0.65829269  0.87153633     0.08000
F2573       F  0.33485594  0.58110723  0.87023452    -0.19500
F2574       F  0.30589536  0.58552288  0.86288384    -0.15700
F2575       F  0.31335189  0.58118528  0.89193445    -0.19200
F2576       F  0.31114953  0.67527526  0.88935859    -0.22600
F2577       F  0.33553793  0.67525997  0.87110738    -0.24000
F2578       F  0.33883267  0.67131417  0.90098287    -0.18000
F2579       F  0.25008132  0.67325767  0.84048048    -0.20500
F2580       F  0.26535331  0.69909430  0.84640031    -0.21700
F2581       F  0.26010037  0.67903208  0.86848220    -0.18900
F2582       F  0.33956933  0.65033247  0.81638451    -0.18900
F2583       F  0.33017821  0.62650386  0.83259585    -0.22800
F2584       F  0.34601144  0.64888932  0.84594381    -0.24400
C2585       C  0.33564015  0.60006701  0.98309118    -0.11200
C2586       C  0.35225793  0.59957953  0.99222938     0.11400
C2587       C  0.36851346  0.59751944  0.98234037    -0.03000
C2588       C  0.36755658  0.59636603  0.96339383    -0.05700
C2589       C  0.35096275  0.59698411  0.95412713    -0.16500
C2590       C  0.33464392  0.59881968  0.96409491     0.02400
C2591       C  0.35221599  0.60015912  0.01228683     0.12400
C2592       C  0.38675329  0.59613048  0.99178166     0.63000
H2593       H  0.37985997  0.59477530  0.95560640     0.12400
C2594       C  0.31624141  0.59871693  0.95491996     0.55100
H2595       H  0.32341011  0.60126736  0.99106275     0.08200
C2596       C  0.35191465  0.61662321  0.02204900    -0.05600
C2597       C  0.35376559  0.61602868  0.04102481    -0.06400
C2598       C  0.35583800  0.59953355  0.05026687    -0.15900
C2599       C  0.35466295  0.58299854  0.04050621    -0.01500
C2600       C  0.35285472  0.58367516  0.02160188    -0.09100
C2601       C  0.34988112  0.63465389  0.01237949     0.65200
H2602       H  0.35426749  0.62848252  0.04872317     0.10700
C2603       C  0.35511402  0.56464737  0.04986103     0.63600
H2604       H  0.35253062  0.57127072  0.01380031     0.08000
F2605       F  0.31434725  0.61399910  0.94428488    -0.19500
F2606       F  0.30223768  0.59862947  0.96736001    -0.15700
F2607       F  0.31451802  0.58342285  0.94426643    -0.19200
F2608       F  0.38729280  0.58059119  0.00220423    -0.22600
F2609       F  0.38950005  0.61097926  0.00280702    -0.24000
F2610       F  0.40091060  0.59541517  0.97954233    -0.18000
F2611       F  0.34980631  0.55085564  0.03833837    -0.20500
F2612       F  0.34344078  0.56459881  0.06449152    -0.21700
F2613       F  0.37247466  0.56085405  0.05569990    -0.18900
F2614       F  0.34994425  0.64903297  0.02436876    -0.18900
F2615       F  0.33368824  0.63497024  0.00300500    -0.22800
F2616       F  0.36395034  0.63713306  0.00030858    -0.24400
C2617       C  0.69044281  0.31075524  0.13527649    -0.11200
C2618       C  0.69521910  0.29271566  0.13212498     0.11400
C2619       C  0.68987185  0.28412624  0.11588100    -0.03000
C2620       C  0.67921693  0.29386106  0.10350668    -0.05700
C2621       C  0.67371678  0.31174962  0.10692025    -0.16500
C2622       C  0.67996142  0.32062259  0.12284091     0.02400
C2623       C  0.70430106  0.28268675  0.14690440     0.12400
C2624       C  0.69523972  0.26471570  0.11172799     0.63000
H2625       H  0.67455146  0.28725950  0.09129023     0.12400
C2626       C  0.67569523  0.34031221  0.12698020     0.55100
H2627       H  0.69453379  0.31689237  0.14794530     0.08200
C2628       C  0.72304781  0.28427076  0.15036631    -0.05600
C2629       C  0.73051450  0.27407601  0.16458966    -0.06400
C2630       C  0.71975829  0.26286358  0.17564274    -0.15900
C2631       C  0.70083347  0.26186542  0.17253023    -0.01500
C2632       C  0.69346241  0.27187133  0.15812747    -0.09100
C2633       C  0.73496466  0.29708465  0.13952064     0.65200
H2634       H  0.74489324  0.27493345  0.16731628     0.10700
C2635       C  0.68832550  0.25086929  0.18462112     0.63600
H2636       H  0.67906075  0.27133286  0.15541486     0.08000
F2637       F  0.68654723  0.34700825  0.14072545    -0.19500
F2638       F  0.65787675  0.34188796  0.13244548    -0.15700
F2639       F  0.67863709  0.35092653  0.11181899    -0.19200
F2640       F  0.68799724  0.25311242  0.12450258    -0.22600
F2641       F  0.71387482  0.26316865  0.11191521    -0.24000
F2642       F  0.68912133  0.25922839  0.09488651    -0.18000
F2643       F  0.67027891  0.25411694  0.18077552    -0.20500
F2644       F  0.69127346  0.25536392  0.20255355    -0.21700
F2645       F  0.69146985  0.23259520  0.18216334    -0.18900
F2646       F  0.75307713  0.29520295  0.14395085    -0.18900
F2647       F  0.72998644  0.31475927  0.14303319    -0.22800
F2648       F  0.73310992  0.29376430  0.12121183    -0.24400
C2649       C  0.67849943  0.31757079  0.86057150    -0.11200
C2650       C  0.68020392  0.29901377  0.86418873     0.11400
C2651       C  0.67370777  0.29188386  0.88073981    -0.03000
C2652       C  0.66433066  0.30344751  0.89254611    -0.05700
C2653       C  0.66153794  0.32181235  0.88841157    -0.16500
C2654       C  0.66929075  0.32921178  0.87247264     0.02400
C2655       C  0.68898331  0.28742305  0.85035684     0.12400
C2656       C  0.67665601  0.27217853  0.88587781     0.63000
H2657       H  0.65874677  0.29809947  0.90500425     0.12400
C2658       C  0.66820504  0.34928576  0.86814606     0.55100
H2659       H  0.68413633  0.32278544  0.84807642     0.08200
C2660       C  0.67929385  0.28034963  0.83543631    -0.05600
C2661       C  0.68852676  0.26950531  0.82279445    -0.06400
C2662       C  0.70711311  0.26574657  0.82449073    -0.15900
C2663       C  0.71677050  0.27291347  0.83965610    -0.01500
C2664       C  0.70745225  0.28381897  0.85215219    -0.09100
C2665       C  0.65931077  0.28442632  0.83285500     0.65200
H2666       H  0.68127767  0.26404736  0.81128655     0.10700
C2667       C  0.73663800  0.26880192  0.84322611     0.63600
H2668       H  0.71450878  0.28966187  0.86360051     0.08000
F2669       F  0.65074523  0.35374937  0.86315844    -0.19500
F2670       F  0.67962500  0.35400450  0.85405407    -0.15700
F2671       F  0.67321017  0.35934407  0.88312834    -0.19200
F2672       F  0.69498473  0.26864572  0.88698767    -0.22600
F2673       F  0.66901506  0.26095061  0.87302027    -0.24000
F2674       F  0.66898227  0.26801662  0.90246203    -0.18000
F2675       F  0.74227857  0.27515047  0.85993948    -0.20500
F2676       F  0.74730618  0.27703587  0.83023845    -0.21700
F2677       F  0.73942511  0.25028965  0.84300196    -0.18900
F2678       F  0.65230229  0.27587033  0.81773841    -0.18900
F2679       F  0.65686642  0.30285217  0.83072803    -0.22800
F2680       F  0.64960045  0.27863860  0.84776379    -0.24400
C2681       C  0.64396351  0.34147427  0.98275140    -0.11200
C2682       C  0.64823624  0.32355703  0.98729675     0.11400
C2683       C  0.64933973  0.31030430  0.97355725    -0.03000
C2684       C  0.64684596  0.31574663  0.95547411    -0.05700
C2685       C  0.64287200  0.33378920  0.95080748    -0.16500
C2686       C  0.64135256  0.34694978  0.96470713     0.02400
C2687       C  0.65033729  0.31928023  0.00680546     0.12400
C2688       C  0.65296595  0.29053981  0.97793412     0.63000
H2689       H  0.64775239  0.30580800  0.94475578     0.12400
C2690       C  0.63754683  0.36675241  0.96069506     0.55100
H2691       H  0.64269107  0.35120381  0.99363029     0.08200
C2692       C  0.66593629  0.32445928  0.01672729    -0.05600
C2693       C  0.66537802  0.32353448  0.03574977    -0.06400
C2694       C  0.64982097  0.31761237  0.04490133    -0.15900
C2695       C  0.63502805  0.31064381  0.03487648    -0.01500
C2696       C  0.63533466  0.31213482  0.01595684    -0.09100
C2697       C  0.68282173  0.33151571  0.00732408     0.65200
H2698       H  0.67667152  0.32854965  0.04365646     0.10700
C2699       C  0.61870855  0.30147771  0.04333584     0.63600
H2700       H  0.62349958  0.30809835  0.00825616     0.08000
F2701       F  0.63892954  0.37737403  0.97607108    -0.19500
F2702       F  0.62018912  0.36863759  0.95398540    -0.15700
F2703       F  0.64986585  0.37323452  0.94817090    -0.19200
F2704       F  0.63904093  0.28363034  0.98834453    -0.22600
F2705       F  0.66903154  0.28891943  0.98736558    -0.24000
F2706       F  0.65424036  0.28010124  0.96243666    -0.18000
F2707       F  0.60350065  0.31192600  0.04030820    -0.20500
F2708       F  0.62062621  0.29864397  0.06172696    -0.21700
F2709       F  0.61617821  0.28473795  0.03532815    -0.18900
F2710       F  0.69674643  0.33470415  0.01946668    -0.18900
F2711       F  0.67909322  0.34757988  0.99849809    -0.22800
F2712       F  0.68881048  0.31896400  0.99485619    -0.24400
C2713       C  0.31590715  0.09301356  0.67644271    -0.11200
C2714       C  0.32537197  0.10940648  0.67696159     0.11400
C2715       C  0.34212767  0.11122241  0.66805123    -0.03000
C2716       C  0.34907648  0.09618507  0.65892528    -0.05700
C2717       C  0.33966736  0.07958628  0.65814073    -0.16500
C2718       C  0.32250197  0.07803239  0.66682355     0.02400
C2719       C  0.31735069  0.12455467  0.68701129     0.12400
C2720       C  0.35262118  0.12896380  0.66824299     0.63000
H2721       H  0.36214782  0.09735239  0.65243530     0.12400
C2722       C  0.31074957  0.06112867  0.66567584     0.55100
H2723       H  0.30313384  0.09217205  0.68358227     0.08200
C2724       C  0.30390818  0.13564297  0.67924521    -0.05600
C2725       C  0.29720311  0.15005167  0.68945765    -0.06400
C2726       C  0.30305224  0.15329873  0.70726789    -0.15900
C2727       C  0.31667163  0.14209178  0.71504282    -0.01500
C2728       C  0.32351198  0.12778149  0.70462105    -0.09100
C2729       C  0.29627711  0.13194694  0.66049756     0.65200
H2730       H  0.28692228  0.15871966  0.68366155     0.10700
C2731       C  0.32384579  0.14476175  0.73417837     0.63600
H2732       H  0.33379085  0.11888386  0.71009496     0.08000
F2733       F  0.29367881  0.06393049  0.67286411    -0.19500
F2734       F  0.31864262  0.04714789  0.67529165    -0.15700
F2735       F  0.30852796  0.05612332  0.64777505    -0.19200
F2736       F  0.35804378  0.13291822  0.68569742    -0.22600
F2737       F  0.34187472  0.14288432  0.66187601    -0.24000
F2738       F  0.36790855  0.12819741  0.65745794    -0.18000
F2739       F  0.33603785  0.13139737  0.73906966    -0.20500
F2740       F  0.30973096  0.14426884  0.74645275    -0.21700
F2741       F  0.33273182  0.16121391  0.73537523    -0.18900
F2742       F  0.28431912  0.14527849  0.65504342    -0.18900
F2743       F  0.28709916  0.11562713  0.66058539    -0.22800
F2744       F  0.31006241  0.13118618  0.64790453    -0.24400
C2745       C  0.32843562  0.82918633  0.66620279    -0.11200
C2746       C  0.32449449  0.83136710  0.68458810     0.11400
C2747       C  0.33090069  0.84678867  0.69394461    -0.03000
C2748       C  0.34149889  0.85948006  0.68448104    -0.05700
C2749       C  0.34595546  0.85710177  0.66613906    -0.16500
C2750       C  0.33887165  0.84191875  0.65663552     0.02400
C2751       C  0.31433805  0.81672080  0.69380562     0.12400
C2752       C  0.32702068  0.84954975  0.71394135     0.63000
H2753       H  0.34688754  0.87113638  0.69155608     0.12400
C2754       C  0.34189259  0.83911276  0.63648348     0.55100
H2755       H  0.32343459  0.81716771  0.65944437     0.08200
C2756       C  0.29533092  0.81503416  0.69233971    -0.05600
C2757       C  0.28681224  0.80039915  0.70104222    -0.06400
C2758       C  0.29662348  0.78765058  0.71122661    -0.15900
C2759       C  0.31569259  0.78938630  0.71262448    -0.01500
C2760       C  0.32423511  0.80388021  0.70365356    -0.09100
C2761       C  0.28412118  0.82863341  0.68170025     0.65200
H2762       H  0.27226648  0.79893333  0.70016433     0.10700
C2763       C  0.32706441  0.77588258  0.72311682     0.63600
H2764       H  0.33880214  0.80541824  0.70430961     0.08000
F2765       F  0.33061382  0.82581702  0.62956764    -0.19500
F2766       F  0.35956418  0.83383222  0.63341393    -0.15700
F2767       F  0.33834285  0.85495545  0.62713041    -0.19200
F2768       F  0.33622366  0.83672757  0.72397541    -0.22600
F2769       F  0.30869580  0.84787185  0.71730227    -0.24000
F2770       F  0.33241667  0.86653269  0.71976248    -0.18000
F2771       F  0.34541001  0.77882812  0.72062594    -0.20500
F2772       F  0.32314194  0.75848466  0.71741667    -0.21700
F2773       F  0.32347361  0.77738296  0.74139795    -0.18900
F2774       F  0.26575336  0.82521537  0.68320980    -0.18900
F2775       F  0.28866861  0.82787749  0.66358498    -0.22800
F2776       F  0.28730152  0.84595031  0.68802347    -0.24400
C2777       C  0.37233147  0.95248437  0.65591030    -0.11200
C2778       C  0.35435808  0.95815467  0.65758837     0.11400
C2779       C  0.34039681  0.94520151  0.65974907    -0.03000
C2780       C  0.34496905  0.92672783  0.65934094    -0.05700
C2781       C  0.36294933  0.92102333  0.65690513    -0.16500
C2782       C  0.37701398  0.93412684  0.65613548     0.02400
C2783       C  0.35079424  0.97772249  0.65538935     0.12400
C2784       C  0.32076958  0.95082179  0.66197733     0.63000
H2785       H  0.33436646  0.91660990  0.66004688     0.12400
C2786       C  0.39693281  0.92903942  0.65577511     0.55100
H2787       H  0.38274876  0.96265579  0.65398733     0.08200
C2788       C  0.35607607  0.99058869  0.66858369    -0.05600
C2789       C  0.35548596  0.00904039  0.66399615    -0.06400
C2790       C  0.34967265  0.01476943  0.64686734    -0.15900
C2791       C  0.34276034  0.00200803  0.63437288    -0.01500
C2792       C  0.34401610  0.98358407  0.63866684    -0.09100
C2793       C  0.36256805  0.98488662  0.68725231     0.65200
H2794       H  0.36041346  0.01911494  0.67344653     0.10700
C2795       C  0.33368214  0.00694128  0.61661231     0.63600
H2796       H  0.34000052  0.97362449  0.62866322     0.08000
F2797       F  0.40783826  0.94360166  0.66036824    -0.19500
F2798       F  0.40179544  0.92340565  0.63862857    -0.15700
F2799       F  0.40028365  0.91535226  0.66812242    -0.19200
F2800       F  0.31436609  0.95813720  0.64599770    -0.22600
F2801       F  0.31930418  0.96357224  0.67556733    -0.24000
F2802       F  0.30984448  0.93625743  0.66650798    -0.18000
F2803       F  0.34368204  0.00010255  0.60238635    -0.20500
F2804       F  0.33168223  0.02538373  0.61421393    -0.21700
F2805       F  0.31659718  0.99924226  0.61615930    -0.18900
F2806       F  0.36539564  0.99966004  0.69842090    -0.18900
F2807       F  0.37869339  0.97555571  0.68597414    -0.22800
F2808       F  0.34974555  0.97387794  0.69531183    -0.24400
C2809       C  0.14106573  0.30579004  0.66273325    -0.11200
C2810       C  0.14428335  0.28714118  0.66199675     0.11400
C2811       C  0.13245258  0.27572976  0.65212544    -0.03000
C2812       C  0.11801208  0.28363248  0.64258523    -0.05700
C2813       C  0.11514709  0.30239409  0.64279357    -0.16500
C2814       C  0.12663739  0.31371489  0.65323538     0.02400
C2815       C  0.15986926  0.27985941  0.67223922     0.12400
C2816       C  0.13495195  0.25531674  0.65192435     0.63000
H2817       H  0.10883658  0.27522103  0.63482179     0.12400
C2818       C  0.12353822  0.33399509  0.65469065     0.55100
H2819       H  0.15011580  0.31411898  0.67072963     0.08200
C2820       C  0.17761899  0.27975414  0.66503770    -0.05600
C2821       C  0.19155055  0.27171236  0.67524033    -0.06400
C2822       C  0.18820761  0.26441089  0.69244363    -0.15900
C2823       C  0.17045951  0.26486884  0.69975842    -0.01500
C2824       C  0.15658935  0.27281975  0.68951014    -0.09100
C2825       C  0.18176264  0.28824008  0.64677209     0.65200
H2826       H  0.20519733  0.27114961  0.66993634     0.10700
C2827       C  0.16595732  0.25615237  0.71786977     0.63600
H2828       H  0.14290554  0.27331714  0.69473191     0.08000
F2829       F  0.13402531  0.34168817  0.66818243    -0.19500
F2830       F  0.10559329  0.33744510  0.65873181    -0.15700
F2831       F  0.12800280  0.34228630  0.63851064    -0.19200
F2832       F  0.13238070  0.24846416  0.66914779    -0.22600
F2833       F  0.15220685  0.25101540  0.64616662    -0.24000
F2834       F  0.12274460  0.24689416  0.64045946    -0.18000
F2835       F  0.17492518  0.26504458  0.73167410    -0.20500
F2836       F  0.17110440  0.23815365  0.71769163    -0.21700
F2837       F  0.14761396  0.25681755  0.72160327    -0.18900
F2838       F  0.19973538  0.28605859  0.64199487    -0.18900
F2839       F  0.17815803  0.30658385  0.64737717    -0.22800
F2840       F  0.17120145  0.28037680  0.63347313    -0.24400
C2841       C  0.86162803  0.29254886  0.66558037    -0.11200
C2842       C  0.86612060  0.28880330  0.68359221     0.11400
C2843       C  0.88370822  0.29270543  0.69008249    -0.03000
C2844       C  0.89612128  0.30107167  0.67832000    -0.05700
C2845       C  0.89145145  0.30550339  0.66042764    -0.16500
C2846       C  0.87394628  0.30095228  0.65377844     0.02400
C2847       C  0.85226297  0.27985984  0.69497777     0.12400
C2848       C  0.88936288  0.28786448  0.70925146     0.63000
H2849       H  0.90957189  0.30442144  0.68310495     0.12400
C2850       C  0.86820765  0.30452876  0.63431647     0.55100
H2851       H  0.84819022  0.28896097  0.66091236     0.08200
C2852       C  0.83809545  0.28959498  0.70330770    -0.05600
C2853       C  0.82501105  0.27990733  0.71322405    -0.06400
C2854       C  0.82564452  0.26090473  0.71495313    -0.15900
C2855       C  0.84020880  0.25129453  0.70678340    -0.01500
C2856       C  0.85303063  0.26103523  0.69663789    -0.09100
C2857       C  0.83680215  0.31008019  0.70162253     0.65200
H2858       H  0.81399700  0.28717177  0.71955156     0.10700
C2859       C  0.84290754  0.23103291  0.70922506     0.63600
H2860       H  0.86394446  0.25402113  0.68985501     0.08000
F2861       F  0.86572690  0.32288324  0.63164051    -0.19500
F2862       F  0.85206918  0.29593870  0.63011527    -0.15700
F2863       F  0.88125556  0.29819612  0.62250876    -0.19200
F2864       F  0.88926846  0.26927255  0.71135012    -0.22600
F2865       F  0.87753088  0.29541288  0.72157462    -0.24000
F2866       F  0.90659120  0.29410503  0.71322404    -0.18000
F2867       F  0.82914031  0.22158427  0.70076590    -0.20500
F2868       F  0.84320266  0.22685718  0.72747905    -0.21700
F2869       F  0.85908331  0.22520499  0.70181263    -0.18900
F2870       F  0.82219288  0.31692920  0.71109995    -0.18900
F2871       F  0.83479077  0.31492436  0.68366439    -0.22800
F2872       F  0.85232961  0.31808100  0.70835681    -0.24400
C2873       C  0.01911595  0.29919121  0.62135805    -0.11200
C2874       C  0.01252885  0.30578190  0.63782948     0.11400
C2875       C  0.02466945  0.31034336  0.65191308    -0.03000
C2876       C  0.04330969  0.31041241  0.64814007    -0.05700
C2877       C  0.04978847  0.30555250  0.63099956    -0.16500
C2878       C  0.03773009  0.29891929  0.61770234     0.02400
C2879       C  0.99295169  0.30944001  0.63917296     0.12400
C2880       C  0.01786961  0.31514420  0.67067954     0.63000
H2881       H  0.05287299  0.31514044  0.65820818     0.12400
C2882       C  0.04457875  0.29159670  0.59980437     0.55100
H2883       H  0.00948541  0.29519700  0.61103993     0.08200
C2884       C  0.98579665  0.32631158  0.63378537    -0.05600
C2885       C  0.96714957  0.32911354  0.63546681    -0.06400
C2886       C  0.95520150  0.31521427  0.64087147    -0.15900
C2887       C  0.96243541  0.29787291  0.64523048    -0.01500
C2888       C  0.98135783  0.29551356  0.64473655    -0.09100
C2889       C  0.99767851  0.34099631  0.62544782     0.65200
H2890       H  0.96172889  0.34225102  0.63196710     0.10700
C2891       C  0.95053813  0.28165073  0.64956794     0.63600
H2892       H  0.98731751  0.28260383  0.64828089     0.08000
F2893       F  0.05274795  0.30521320  0.58988489    -0.19500
F2894       F  0.03069422  0.28439374  0.58946598    -0.15700
F2895       F  0.05703848  0.27803294  0.60307899    -0.19200
F2896       F  0.00839245  0.30059278  0.67770974    -0.22600
F2897       F  0.00654055  0.32998987  0.66993532    -0.24000
F2898       F  0.03195970  0.31916010  0.68237440    -0.18000
F2899       F  0.96047625  0.26581866  0.65079290    -0.20500
F2900       F  0.93780845  0.27928309  0.63603221    -0.21700
F2901       F  0.94195455  0.28424107  0.66596889    -0.18900
F2902       F  0.98791578  0.35642365  0.62125290    -0.18900
F2903       F  0.00530035  0.33462817  0.60961144    -0.22800
F2904       F  0.01134095  0.34588453  0.63724978    -0.24400
C2905       C  0.67258111  0.09431721  0.31864136    -0.11200
C2906       C  0.67790398  0.11058643  0.32679429     0.11400
C2907       C  0.67426937  0.11354343  0.34534610    -0.03000
C2908       C  0.66623659  0.09950600  0.35542433    -0.05700
C2909       C  0.66145909  0.08290730  0.34744563    -0.16500
C2910       C  0.66428032  0.08036925  0.32862760     0.02400
C2911       C  0.68725450  0.12428246  0.31544621     0.12400
C2912       C  0.67862218  0.13151667  0.35434693     0.63000
H2913       H  0.66353664  0.10141514  0.36969680     0.12400
C2914       C  0.65824383  0.06328667  0.31895190     0.55100
H2915       H  0.67516873  0.09259572  0.30432089     0.08200
C2916       C  0.70591053  0.12298031  0.31148079    -0.05600
C2917       C  0.71384722  0.13630994  0.30047373    -0.06400
C2918       C  0.70382754  0.15088795  0.29337319    -0.15900
C2919       C  0.68512318  0.15226956  0.29764584    -0.01500
C2920       C  0.67711957  0.13865402  0.30837001    -0.09100
C2921       C  0.71736572  0.10751697  0.31876185     0.65200
H2922       H  0.72806275  0.13525475  0.29710473     0.10700
C2923       C  0.67372530  0.16824395  0.29163861     0.63600
H2924       H  0.66280824  0.13914665  0.31147718     0.08000
F2925       F  0.66933530  0.04909291  0.32389546    -0.19500
F2926       F  0.65916270  0.06516736  0.30033069    -0.15700
F2927       F  0.64050178  0.05923138  0.32339434    -0.19200
F2928       F  0.66852195  0.14512170  0.34642835    -0.22600
F2929       F  0.69680336  0.13550902  0.35241464    -0.24000
F2930       F  0.67465238  0.13127227  0.37265033    -0.18000
F2931       F  0.67164502  0.16796919  0.27309113    -0.20500
F2932       F  0.68201700  0.18423055  0.29680435    -0.21700
F2933       F  0.65661673  0.16786153  0.29927171    -0.18900
F2934       F  0.73544734  0.10950083  0.31424732    -0.18900
F2935       F  0.71134847  0.09128498  0.31166091    -0.22800
F2936       F  0.71615599  0.10683681  0.33741585    -0.24400
C2937       C  0.70113569  0.81256086  0.32615011    -0.11200
C2938       C  0.68447739  0.81775359  0.31881021     0.11400
C2939       C  0.67751303  0.80859835  0.30353691    -0.03000
C2940       C  0.68768553  0.79442456  0.29600917    -0.05700
C2941       C  0.70446931  0.78902779  0.30330442    -0.16500
C2942       C  0.71114911  0.79803293  0.31904350     0.02400
C2943       C  0.67432620  0.83242234  0.32797492     0.12400
C2944       C  0.65946066  0.81385665  0.29518968     0.63000
H2945       H  0.68253591  0.78746651  0.28419044     0.12400
C2946       C  0.72866351  0.79265964  0.32847812     0.55100
H2947       H  0.70607183  0.81993070  0.33781806     0.08200
C2948       C  0.66457511  0.82916596  0.34408525    -0.05600
C2949       C  0.65535092  0.84363004  0.35219345    -0.06400
C2950       C  0.65539799  0.86117963  0.34469559    -0.15900
C2951       C  0.66522580  0.86437054  0.32840803    -0.01500
C2952       C  0.67474186  0.84986791  0.32051704    -0.09100
C2953       C  0.66387739  0.81043519  0.35264018     0.65200
H2954       H  0.64804112  0.84125750  0.36466012     0.10700
C2955       C  0.66548643  0.88269473  0.31900364     0.63600
H2956       H  0.68260244  0.85197854  0.30832961     0.08000
F2957       F  0.72730388  0.77507092  0.33479923    -0.19500
F2958       F  0.73241889  0.80359662  0.34322222    -0.15700
F2959       F  0.74304562  0.79410016  0.31659230    -0.19200
F2960       F  0.66047273  0.83128601  0.28844610    -0.22600
F2961       F  0.64594431  0.81303031  0.30809071    -0.24000
F2962       F  0.65464508  0.80247345  0.28110844    -0.18000
F2963       F  0.67521413  0.89496797  0.32927611    -0.20500
F2964       F  0.64799348  0.88889094  0.31655764    -0.21700
F2965       F  0.67352097  0.88180711  0.30211105    -0.18900
F2966       F  0.65228738  0.80984546  0.36733166    -0.18900
F2967       F  0.68091754  0.80553346  0.35857299    -0.22800
F2968       F  0.65787474  0.79787530  0.34013444    -0.24400
C2969       C  0.63519064  0.95639002  0.35462742    -0.11200
C2970       C  0.65177261  0.96206405  0.36194290     0.11400
C2971       C  0.66430348  0.94905081  0.36833057    -0.03000
C2972       C  0.65961975  0.93059764  0.36729721    -0.05700
C2973       C  0.64275282  0.92500963  0.36058652    -0.16500
C2974       C  0.63045463  0.93799069  0.35372412     0.02400
C2975       C  0.65466777  0.98181923  0.36409908     0.12400
C2976       C  0.68231286  0.95462537  0.37654848     0.63000
H2977       H  0.66880074  0.92038964  0.37242238     0.12400
C2978       C  0.61250606  0.93245305  0.34533111     0.55100
H2979       H  0.62572236  0.96661141  0.35008139     0.08200
C2980       C  0.65838694  0.99334752  0.34924398    -0.05600
C2981       C  0.65752148  0.01220708  0.35184278    -0.06400
C2982       C  0.65339990  0.01971628  0.36881493    -0.15900
C2983       C  0.65177638  0.00806765  0.38404044    -0.01500
C2984       C  0.65174713  0.98928562  0.38124479    -0.09100
C2985       C  0.66264208  0.98577548  0.33063674     0.65200
H2986       H  0.65898609  0.02113506  0.34034631     0.10700
C2987       C  0.64974290  0.01510423  0.40322911     0.63600
H2988       H  0.64884191  0.98026505  0.39245461     0.08000
F2989       F  0.61535307  0.91933821  0.33229881    -0.19500
F2990       F  0.60392199  0.94694545  0.33711481    -0.15700
F2991       F  0.60110328  0.92565825  0.35851942    -0.19200
F2992       F  0.67945700  0.96372526  0.39261281    -0.22600
F2993       F  0.69157190  0.96582661  0.36474987    -0.24000
F2994       F  0.69315321  0.93979721  0.38018858    -0.18000
F2995       F  0.65535108  0.00230791  0.41573324    -0.20500
F2996       F  0.63179608  0.01912019  0.40660074    -0.21700
F2997       F  0.66024853  0.03042667  0.40577775    -0.18900
F2998       F  0.66835627  0.99919225  0.31883798    -0.18900
F2999       F  0.64740574  0.97768404  0.32338622    -0.22800
F3000       F  0.67628499  0.97306163  0.33190516    -0.24400
C3001       C  0.13616537  0.61712548  0.31811327    -0.11200
C3002       C  0.13300267  0.63555605  0.31499905     0.11400
C3003       C  0.11629192  0.64333548  0.32009181    -0.03000
C3004       C  0.10378212  0.63260912  0.32962150    -0.05700
C3005       C  0.10723482  0.61432579  0.33348767    -0.16500
C3006       C  0.12340880  0.60620438  0.32710382     0.02400
C3007       C  0.14740444  0.64631597  0.30608371     0.12400
C3008       C  0.11145409  0.66263360  0.31488551     0.63000
H3009       H  0.09115957  0.63845640  0.33415652     0.12400
C3010       C  0.12696343  0.58603857  0.32912847     0.55100
H3011       H  0.14884485  0.61140649  0.31353319     0.08200
C3012       C  0.16105708  0.65522919  0.31609494    -0.05600
C3013       C  0.17371584  0.66601060  0.30675414    -0.06400
C3014       C  0.17373416  0.66729983  0.28772588    -0.15900
C3015       C  0.16062331  0.65719477  0.27769062    -0.01500
C3016       C  0.14751516  0.64713722  0.28720379    -0.09100
C3017       C  0.16245657  0.65289551  0.33649049     0.65200
H3018       H  0.18396612  0.67328036  0.31430895     0.10700
C3019       C  0.16008418  0.65694592  0.25710808     0.63600
H3020       H  0.13715829  0.63966713  0.27998477     0.08000
F3021       F  0.13036092  0.58184245  0.34703906    -0.19500
F3022       F  0.14178384  0.58060025  0.31907662    -0.15700
F3023       F  0.11209510  0.57630762  0.32314930    -0.19200
F3024       F  0.11014572  0.66387513  0.29626279    -0.22600
F3025       F  0.12456565  0.67457919  0.32085954    -0.24000
F3026       F  0.09506403  0.66789907  0.32224323    -0.18000
F3027       F  0.17564011  0.64895752  0.25049214    -0.20500
F3028       F  0.15859856  0.67440953  0.25050834    -0.21700
F3029       F  0.14552332  0.64710857  0.25054147    -0.18900
F3030       F  0.17669569  0.66274072  0.34368675    -0.18900
F3031       F  0.16524290  0.63483565  0.34055228    -0.22800
F3032       F  0.14670371  0.65856708  0.34478016    -0.24400
C3033       C  0.87100898  0.64983309  0.32721667    -0.11200
C3034       C  0.85424009  0.64119219  0.32525386     0.11400
C3035       C  0.85186650  0.62328045  0.33154669    -0.03000
C3036       C  0.86650909  0.61465604  0.34002551    -0.05700
C3037       C  0.88338155  0.62327793  0.34216669    -0.16500
C3038       C  0.88566765  0.64130829  0.33583142     0.02400
C3039       C  0.83969822  0.65094027  0.31557305     0.12400
C3040       C  0.83403048  0.61327240  0.32907393     0.63000
H3041       H  0.86493833  0.60088282  0.34481369     0.12400
C3042       C  0.90317870  0.65180499  0.33845143     0.55100
H3043       H  0.87249929  0.66339936  0.32182978     0.08200
C3044       C  0.82886155  0.66416704  0.32409452    -0.05600
C3045       C  0.81521396  0.67265204  0.31390156    -0.06400
C3046       C  0.81239632  0.66852206  0.29553331    -0.15900
C3047       C  0.82385390  0.65572287  0.28688372    -0.01500
C3048       C  0.83729690  0.64713273  0.29719906    -0.09100
C3049       C  0.83181268  0.66933899  0.34378110     0.65200
H3050       H  0.80664183  0.68269442  0.32021601     0.10700
C3051       C  0.82259047  0.65158481  0.26675867     0.63600
H3052       H  0.84618883  0.63729361  0.29099647     0.08000
F3053       F  0.90119871  0.66992110  0.33405985    -0.19500
F3054       F  0.91651649  0.64473107  0.32745146    -0.15700
F3055       F  0.90860816  0.65085102  0.35634921    -0.19200
F3056       F  0.83057030  0.61087728  0.31085113    -0.22600
F3057       F  0.82006910  0.62308393  0.33667668    -0.24000
F3058       F  0.83427687  0.59636695  0.33717802    -0.18000
F3059       F  0.83671579  0.64075150  0.26097510    -0.20500
F3060       F  0.82325854  0.66751196  0.25690786    -0.21700
F3061       F  0.80661453  0.64253615  0.26306932    -0.18900
F3062       F  0.81975133  0.68249075  0.34940402    -0.18900
F3063       F  0.84911297  0.67610391  0.34609999    -0.22800
F3064       F  0.82958879  0.65431995  0.35473460    -0.24400
C3065       C  0.97444009  0.60137108  0.33278594    -0.11200
C3066       C  0.98551174  0.60524342  0.34771261     0.11400
C3067       C  0.97769418  0.61097457  0.36420352    -0.03000
C3068       C  0.95878010  0.61126728  0.36561785    -0.05700
C3069       C  0.94763727  0.60645977  0.35103066    -0.16500
C3070       C  0.95544110  0.60192681  0.33414712     0.02400
C3071       C  0.00527217  0.60257760  0.34605345     0.12400
C3072       C  0.98928326  0.61647431  0.38029871     0.63000
H3073       H  0.95246335  0.61484903  0.37834181     0.12400
C3074       C  0.94381258  0.59702039  0.31795025     0.55100
H3075       H  0.98083981  0.59739642  0.32022942     0.08200
C3076       C  0.01334268  0.58563547  0.34967467    -0.05600
C3077       C  0.03227844  0.58461481  0.35028420    -0.06400
C3078       C  0.04331690  0.59982372  0.34718553    -0.15900
C3079       C  0.03513839  0.61653631  0.34224374    -0.01500
C3080       C  0.01611549  0.61755090  0.34180569    -0.09100
C3081       C  0.00200685  0.56872641  0.35286915     0.65200
H3082       H  0.03864925  0.57181788  0.35333558     0.10700
C3083       C  0.04617202  0.63338003  0.33798809     0.63600
H3084       H  0.00945211  0.63021562  0.33866025     0.08000
F3085       F  0.95419131  0.59238046  0.30307599    -0.19500
F3086       F  0.93317577  0.61163608  0.31318027    -0.15700
F3087       F  0.93280642  0.58245182  0.32217774    -0.19200
F3088       F  0.00017149  0.63096523  0.37558472    -0.22600
F3089       F  0.00008040  0.60218600  0.38567112    -0.24000
F3090       F  0.97885473  0.62163754  0.39496147    -0.18000
F3091       F  0.05618139  0.63058607  0.32244340    -0.20500
F3092       F  0.05762076  0.63732808  0.35227207    -0.21700
F3093       F  0.03529900  0.64834425  0.33506704    -0.18900
F3094       F  0.01263079  0.55382637  0.35687923    -0.18900
F3095       F  0.99213173  0.56483728  0.33745945    -0.22800
F3096       F  0.99023895  0.57134171  0.36715178    -0.24400
C3097       C  0.67168608  0.66416438  0.16891896    -0.11200
C3098       C  0.68053030  0.66486177  0.15213225     0.11400
C3099       C  0.69718599  0.67414053  0.15047514    -0.03000
C3100       C  0.70492630  0.68178836  0.16607086    -0.05700
C3101       C  0.69617132  0.68106828  0.18292793    -0.16500
C3102       C  0.67921494  0.67222646  0.18446316     0.02400
C3103       C  0.67154912  0.65641486  0.13633541     0.12400
C3104       C  0.70639265  0.67644539  0.13222387     0.63000
H3105       H  0.71773018  0.68889936  0.16513369     0.12400
C3106       C  0.66941728  0.67083982  0.20244699     0.55100
H3107       H  0.65875829  0.65726398  0.16968108     0.08200
C3108       C  0.67329960  0.63773685  0.13245135    -0.05600
C3109       C  0.66379773  0.63063924  0.11757516    -0.06400
C3110       C  0.65248734  0.64153388  0.10690529    -0.15900
C3111       C  0.65053345  0.66011046  0.11096501    -0.01500
C3112       C  0.66031750  0.66732231  0.12560574    -0.09100
C3113       C  0.68474004  0.62530575  0.14420710     0.65200
H3114       H  0.66472102  0.61635681  0.11440157     0.10700
C3115       C  0.63742633  0.67194005  0.10051904     0.63600
H3116       H  0.65893210  0.68147693  0.12914070     0.08000
F3117       F  0.65385013  0.66044479  0.20114818    -0.19500
F3118       F  0.66450438  0.68788985  0.20832041    -0.15700
F3119       F  0.68064639  0.66290786  0.21515171    -0.19200
F3120       F  0.69546076  0.68654319  0.12088515    -0.22600
F3121       F  0.70947770  0.65977724  0.12437322    -0.24000
F3122       F  0.72286483  0.68526880  0.13377014    -0.18000
F3123       F  0.63753461  0.68962422  0.10669773    -0.20500
F3124       F  0.62006358  0.66514718  0.10234833    -0.21700
F3125       F  0.64206182  0.67215856  0.08243160    -0.18900
F3126       F  0.68446419  0.60763293  0.13798622    -0.18900
F3127       F  0.67821604  0.62530762  0.16172694    -0.22800
F3128       F  0.70251646  0.63112638  0.14434595    -0.24400
C3129       C  0.67881524  0.61781535  0.85772250    -0.11200
C3130       C  0.68054024  0.63661058  0.85977525     0.11400
C3131       C  0.67264810  0.64520465  0.87496052    -0.03000
C3132       C  0.66321104  0.63453778  0.88764493    -0.05700
C3133       C  0.66113658  0.61576595  0.88539973    -0.16500
C3134       C  0.66938756  0.60714139  0.87041134     0.02400
C3135       C  0.68993002  0.64697447  0.84526617     0.12400
C3136       C  0.67378876  0.66557806  0.87752833     0.63000
H3137       H  0.65686080  0.64088960  0.89920727     0.12400
C3138       C  0.66864484  0.58675427  0.86800244     0.55100
H3139       H  0.68477906  0.61158384  0.84589109     0.08200
C3140       C  0.70904206  0.64801938  0.84413250    -0.05600
C3141       C  0.71684172  0.65817977  0.82998964    -0.06400
C3142       C  0.70617781  0.66694267  0.81690141    -0.15900
C3143       C  0.68709876  0.66505855  0.81752305    -0.01500
C3144       C  0.67929258  0.65517883  0.83184910    -0.09100
C3145       C  0.72111202  0.63838624  0.85772147     0.65200
H3146       H  0.73140799  0.65948094  0.82910170     0.10700
C3147       C  0.67508242  0.67278402  0.80275500     0.63600
H3148       H  0.66472867  0.65371299  0.83269602     0.08000
F3149       F  0.68010857  0.58099830  0.85436958    -0.19500
F3150       F  0.65124624  0.58148621  0.86355987    -0.15700
F3151       F  0.67385465  0.57825710  0.88386369    -0.19200
F3152       F  0.66429955  0.67418516  0.86389545    -0.22600
F3153       F  0.69163431  0.67119638  0.87703892    -0.24000
F3154       F  0.66653386  0.67091906  0.89394485    -0.18000
F3155       F  0.65743513  0.66662749  0.80424654    -0.20500
F3156       F  0.68152212  0.66763208  0.78595845    -0.21700
F3157       F  0.67489158  0.69146041  0.80383587    -0.18900
F3158       F  0.73928317  0.64157247  0.85439817    -0.18900
F3159       F  0.71822749  0.61991937  0.85680445    -0.22800
F3160       F  0.71728168  0.64428832  0.87503514    -0.24400
C3161       C  0.66148388  0.60949294  0.97724590    -0.11200
C3162       C  0.64539445  0.61258871  0.98680022     0.11400
C3163       C  0.62868355  0.61286920  0.97742831    -0.03000
C3164       C  0.62866975  0.60965536  0.95874460    -0.05700
C3165       C  0.64458210  0.60583800  0.94916912    -0.16500
C3166       C  0.66141605  0.60591651  0.95849460     0.02400
C3167       C  0.64626455  0.61563588  0.00662679     0.12400
C3168       C  0.61082054  0.61604567  0.98712725     0.63000
H3169       H  0.61604983  0.61004219  0.95140161     0.12400
C3170       C  0.67913917  0.60179851  0.94897767     0.55100
H3171       H  0.67410644  0.60974949  0.98469647     0.08200
C3172       C  0.64721797  0.60108338  0.01904213    -0.05600
C3173       C  0.64489633  0.60476121  0.03750041    -0.06400
C3174       C  0.64179409  0.62237850  0.04388312    -0.15900
C3175       C  0.64236244  0.63711411  0.03161687    -0.01500
C3176       C  0.64481497  0.63343816  0.01307599    -0.09100
C3177       C  0.65032657  0.58173488  0.01287178     0.65200
H3178       H  0.64488629  0.59372014  0.04716511     0.10700
C3179       C  0.63974365  0.65644874  0.03788639     0.63600
H3180       H  0.64474253  0.64437112  0.00329487     0.08000
F3181       F  0.69344649  0.60066424  0.96104437    -0.19500
F3182       F  0.68309136  0.61538000  0.93671075    -0.15700
F3183       F  0.67784933  0.58542451  0.94000671    -0.19200
F3184       F  0.61093090  0.63273957  0.99552091    -0.22600
F3185       F  0.60813021  0.60267915  0.99995788    -0.24000
F3186       F  0.59626382  0.61572804  0.97531126    -0.18000
F3187       F  0.65382520  0.66124415  0.04922430    -0.20500
F3188       F  0.62350216  0.65802267  0.04703573    -0.21700
F3189       F  0.63952776  0.66851364  0.02352304    -0.18900
F3190       F  0.65039669  0.56970272  0.02726843    -0.18900
F3191       F  0.66689020  0.58051319  0.00430032    -0.22800
F3192       F  0.63682040  0.57649107  0.00102781    -0.24400
C3193       C  0.13769785  0.62926056  0.67914241    -0.11200
C3194       C  0.13478064  0.64724820  0.68429865     0.11400
C3195       C  0.11800689  0.65558406  0.68035507    -0.03000
C3196       C  0.10489373  0.64572344  0.67063328    -0.05700
C3197       C  0.10791101  0.62778367  0.66498857    -0.16500
C3198       C  0.12437456  0.61912425  0.67001766     0.02400
C3199       C  0.14952347  0.65696336  0.69400646     0.12400
C3200       C  0.11404908  0.67488344  0.68622613     0.63000
H3201       H  0.09228941  0.65221498  0.66696801     0.12400
C3202       C  0.12790548  0.59918616  0.66639798     0.55100
H3203       H  0.15064846  0.62318987  0.68231708     0.08200
C3204       C  0.15351389  0.65348953  0.71240041    -0.05600
C3205       C  0.16761571  0.66323300  0.72066955    -0.06400
C3206       C  0.17759976  0.67658627  0.71136567    -0.15900
C3207       C  0.17308956  0.68048492  0.69303672    -0.01500
C3208       C  0.15943625  0.67014539  0.68457877    -0.09100
C3209       C  0.14298225  0.63952175  0.72328385     0.65200
H3210       H  0.17086993  0.66049442  0.73469118     0.10700
C3211       C  0.18235194  0.69544825  0.68234696     0.63600
H3212       H  0.15609212  0.67247387  0.67050031     0.08000
F3213       F  0.14245101  0.59282967  0.67636029    -0.19500
F3214       F  0.13176150  0.59661401  0.64828209    -0.15700
F3215       F  0.11293337  0.58896980  0.67120096    -0.19200
F3216       F  0.12455159  0.68681716  0.67633790    -0.22600
F3217       F  0.11786150  0.67699695  0.70443032    -0.24000
F3218       F  0.09606355  0.67936989  0.68356661    -0.18000
F3219       F  0.17683849  0.69571655  0.66443473    -0.20500
F3220       F  0.20090122  0.69301095  0.68260542    -0.21700
F3221       F  0.17810282  0.71207197  0.68979884    -0.18900
F3222       F  0.14719736  0.64028186  0.74152957    -0.18900
F3223       F  0.14703020  0.62234596  0.71713673    -0.22800
F3224       F  0.12458715  0.64246576  0.72153367    -0.24400
C3225       C  0.82588428  0.66677598  0.66612680    -0.11200
C3226       C  0.83713113  0.65543531  0.67630728     0.11400
C3227       C  0.83428821  0.65371443  0.69512896    -0.03000
C3228       C  0.82049907  0.66396310  0.70325756    -0.05700
C3229       C  0.80924531  0.67572529  0.69324437    -0.16500
C3230       C  0.81165876  0.67666609  0.67407580     0.02400
C3231       C  0.85249757  0.64639384  0.66702313     0.12400
C3232       C  0.84590901  0.64122292  0.70663501     0.63000
H3233       H  0.81870994  0.66302015  0.71775422     0.12400
C3234       C  0.79946005  0.68777345  0.66176734     0.55100
H3235       H  0.82856050  0.66796795  0.65176853     0.08200
C3236       C  0.85021291  0.63066944  0.65638578    -0.05600
C3237       C  0.86556020  0.62289967  0.64829291    -0.06400
C3238       C  0.88301132  0.63054291  0.65002799    -0.15900
C3239       C  0.88508891  0.64666029  0.66037401    -0.01500
C3240       C  0.86970306  0.65423228  0.66866277    -0.09100
C3241       C  0.83165061  0.62222783  0.65343062     0.65200
H3242       H  0.86391182  0.61069480  0.64037856     0.10700
C3243       C  0.90319085  0.65621658  0.66251551     0.63600
H3244       H  0.87093183  0.66647280  0.67662324     0.08000
F3245       F  0.80310877  0.68474689  0.64363919    -0.19500
F3246       F  0.80197308  0.70603085  0.66506565    -0.15700
F3247       F  0.78155715  0.68310703  0.66469556    -0.19200
F3248       F  0.86354749  0.64746477  0.70697611    -0.22600
F3249       F  0.84563936  0.62392412  0.69953095    -0.24000
F3250       F  0.83977473  0.64022686  0.72430875    -0.18000
F3251       F  0.90143746  0.67278197  0.67106226    -0.20500
F3252       F  0.91079379  0.65937755  0.64570207    -0.21700
F3253       F  0.91469212  0.64569045  0.67287303    -0.18900
F3254       F  0.83258299  0.60656739  0.64319485    -0.18900
F3255       F  0.82057798  0.63428161  0.64438751    -0.22800
F3256       F  0.82386709  0.61788597  0.66987382    -0.24400
C3257       C  0.97901410  0.60454820  0.64511388    -0.11200
C3258       C  0.98569525  0.62205543  0.64810697     0.11400
C3259       C  0.97352820  0.63685933  0.64822352    -0.03000
C3260       C  0.95495113  0.63350636  0.64524802    -0.05700
C3261       C  0.94835700  0.61601535  0.64166812    -0.16500
C3262       C  0.96053408  0.60115375  0.64216455     0.02400
C3263       C  0.00572307  0.62415213  0.64930623     0.12400
C3264       C  0.98013646  0.65611931  0.65100953     0.63000
H3265       H  0.94552104  0.64469241  0.64483485     0.12400
C3266       C  0.95437503  0.58172021  0.63939710     0.55100
H3267       H  0.98859756  0.59347370  0.64462508     0.08200
C3268       C  0.01575503  0.61801702  0.66450542    -0.05600
C3269       C  0.03471291  0.61641978  0.66296891    -0.06400
C3270       C  0.04373429  0.62098284  0.64690769    -0.15900
C3271       C  0.03392762  0.62878588  0.63242957    -0.01500
C3272       C  0.01496629  0.62980100  0.63369707    -0.09100
C3273       C  0.00648909  0.61313358  0.68220516     0.65200
H3274       H  0.04257050  0.61088797  0.67404196     0.10700
C3275       C  0.04353822  0.63626312  0.61586859     0.63600
H3276       H  0.00713436  0.63432027  0.62215851     0.08000
F3277       F  0.96721138  0.56950685  0.64549575    -0.19500
F3278       F  0.95157803  0.57859311  0.62117268    -0.15700
F3279       F  0.93856659  0.57842308  0.64887681    -0.19200
F3280       F  0.99114230  0.66124612  0.63678721    -0.22600
F3281       F  0.98981202  0.65729487  0.66696874    -0.24000
F3282       F  0.96591787  0.66826293  0.65192093    -0.18000
F3283       F  0.03176292  0.64542033  0.60453145    -0.20500
F3284       F  0.05134059  0.62238059  0.60611805    -0.21700
F3285       F  0.05687798  0.64828122  0.62126525    -0.18900
F3286       F  0.01884118  0.60815263  0.69538986    -0.18900
F3287       F  0.99467331  0.59883454  0.67973392    -0.22800
F3288       F  0.99695657  0.62790448  0.68851721    -0.24400
C3289       C  0.69122017  0.13815887  0.68123730    -0.11200
C3290       C  0.68606827  0.12262988  0.69087982     0.11400
C3291       C  0.69094854  0.12094352  0.70932635    -0.03000
C3292       C  0.70028407  0.13534084  0.71771684    -0.05700
C3293       C  0.70591605  0.15077016  0.70800215    -0.16500
C3294       C  0.70136513  0.15217126  0.68934157     0.02400
C3295       C  0.67687748  0.10778123  0.68077065     0.12400
C3296       C  0.68706489  0.10366913  0.71984242     0.63000
H3297       H  0.70408603  0.13422386  0.73182720     0.12400
C3298       C  0.70735559  0.16812125  0.67781359     0.55100
H3299       H  0.68774809  0.13887639  0.66701132     0.08200
C3300       C  0.65797087  0.10761787  0.67766585    -0.05600
C3301       C  0.65047751  0.09356086  0.66721243    -0.06400
C3302       C  0.66119981  0.07981722  0.65969756    -0.15900
C3303       C  0.68016336  0.07989345  0.66297368    -0.01500
C3304       C  0.68765127  0.09405193  0.67335989    -0.09100
C3305       C  0.64580197  0.12246686  0.68491709     0.65200
H3306       H  0.63606231  0.09327912  0.66467688     0.10700
C3307       C  0.69258592  0.06543464  0.65531468     0.63600
H3308       H  0.70209880  0.09459331  0.67579153     0.08000
F3309       F  0.69886205  0.16821083  0.66110210    -0.19500
F3310       F  0.72581152  0.16716097  0.67488655    -0.15700
F3311       F  0.70323539  0.18421983  0.68639442    -0.19200
F3312       F  0.69641395  0.08942625  0.71217429    -0.22600
F3313       F  0.66877481  0.09977638  0.71949675    -0.24000
F3314       F  0.69235732  0.10506284  0.73776084    -0.18000
F3315       F  0.71066111  0.06955097  0.65814196    -0.20500
F3316       F  0.68990803  0.06378053  0.63686126    -0.21700
F3317       F  0.68906823  0.04903489  0.66365135    -0.18900
F3318       F  0.62773373  0.11911484  0.68116789    -0.18900
F3319       F  0.65046903  0.13880295  0.67706112    -0.22800
F3320       F  0.64765569  0.12385194  0.70346343    -0.24400
C3321       C  0.64214787  0.82878337  0.68163145    -0.11200
C3322       C  0.66106770  0.82902664  0.68190615     0.11400
C3323       C  0.67057216  0.84356276  0.67376393    -0.03000
C3324       C  0.66059349  0.85757390  0.66553720    -0.05700
C3325       C  0.64158676  0.85710734  0.66482146    -0.16500
C3326       C  0.63216199  0.84265339  0.67333071     0.02400
C3327       C  0.67049655  0.81371696  0.69081056     0.12400
C3328       C  0.69112576  0.84394114  0.67334946     0.63000
H3329       H  0.66760510  0.86863374  0.65893311     0.12400
C3330       C  0.61165776  0.84160432  0.67363280     0.55100
H3331       H  0.63522662  0.81738882  0.68777988     0.08200
C3332       C  0.67243208  0.81277655  0.70983847    -0.05600
C3333       C  0.68162765  0.79793773  0.71735442    -0.06400
C3334       C  0.68884426  0.78417938  0.70647297    -0.15900
C3335       C  0.68644456  0.78484332  0.68746298    -0.01500
C3336       C  0.67718020  0.79969113  0.67993715    -0.09100
C3337       C  0.66469999  0.82729353  0.72214147     0.65200
H3338       H  0.68348042  0.79706574  0.73187367     0.10700
C3339       C  0.69299962  0.76966543  0.67530205     0.63600
H3340       H  0.67509668  0.80054077  0.66545253     0.08000
F3341       F  0.60554884  0.82960610  0.68668912    -0.19500
F3342       F  0.60547878  0.83573463  0.65697763    -0.15700
F3343       F  0.60435893  0.85838601  0.67751828    -0.19200
F3344       F  0.69740235  0.82986576  0.66278017    -0.22600
F3345       F  0.69798960  0.84209976  0.69066435    -0.24000
F3346       F  0.69769209  0.85999035  0.66620109    -0.18000
F3347       F  0.68794320  0.77234029  0.65745678    -0.20500
F3348       F  0.68570699  0.75339205  0.68106312    -0.21700
F3349       F  0.71163340  0.76860148  0.67585445    -0.18900
F3350       F  0.67001811  0.82488843  0.73995094    -0.18900
F3351       F  0.64601417  0.82669514  0.72151391    -0.22800
F3352       F  0.67050911  0.84423481  0.71665290    -0.24400
C3353       C  0.65418026  0.94722738  0.65371076    -0.11200
C3354       C  0.64134282  0.95956139  0.64732255     0.11400
C3355       C  0.62427043  0.95328935  0.64138865    -0.03000
C3356       C  0.62060909  0.93462905  0.64210801    -0.05700
C3357       C  0.63356145  0.92192863  0.64806851    -0.16500
C3358       C  0.65068683  0.92844924  0.65428609     0.02400
C3359       C  0.64623281  0.97902579  0.64635825     0.12400
C3360       C  0.61020316  0.96622347  0.63370635     0.63000
H3361       H  0.60754760  0.92980800  0.63753384     0.12400
C3362       C  0.66557395  0.91596323  0.66098451     0.55100
H3363       H  0.66715628  0.95253453  0.65801438     0.08200
C3364       C  0.64410747  0.99077793  0.66131861    -0.05600
C3365       C  0.64579234  0.00954453  0.65846679    -0.06400
C3366       C  0.64958545  0.01660460  0.64124703    -0.15900
C3367       C  0.65370756  0.00471770  0.62682326    -0.01500
C3368       C  0.65194250  0.98598889  0.62965711    -0.09100
C3369       C  0.63956556  0.98352083  0.68000047     0.65200
H3370       H  0.64317431  0.01888720  0.66943538     0.10700
C3371       C  0.65981761  0.01177125  0.60851261     0.63600
H3372       H  0.65408509  0.97666003  0.61856697     0.08000
F3373       F  0.65993559  0.90698174  0.67641701    -0.19500
F3374       F  0.68121014  0.92535779  0.66536832    -0.15700
F3375       F  0.66991594  0.90362388  0.64763014    -0.19200
F3376       F  0.61637136  0.97335644  0.61753635    -0.22600
F3377       F  0.60702219  0.98021305  0.64569067    -0.24000
F3378       F  0.59385905  0.95764179  0.63041231    -0.18000
F3379       F  0.66687288  0.99807559  0.59789109    -0.20500
F3380       F  0.67315845  0.02474949  0.61079312    -0.21700
F3381       F  0.64533857  0.01931404  0.59939595    -0.18900
F3382       F  0.63817110  0.99726475  0.69263885    -0.18900
F3383       F  0.65302581  0.97184825  0.68567782    -0.22800
F3384       F  0.62327100  0.97430519  0.67953439    -0.24400
C3385       C  0.92408952  0.85519434  0.40380166    -0.11200
C3386       C  0.91795049  0.87313288  0.40415281     0.11400
C3387       C  0.89941990  0.87686725  0.40727477    -0.03000
C3388       C  0.88754639  0.86225949  0.41004598    -0.05700
C3389       C  0.89380953  0.84438655  0.41027427    -0.16500
C3390       C  0.91230127  0.84065730  0.40725696     0.02400
C3391       C  0.93132243  0.88778138  0.40142753     0.12400
C3392       C  0.89237034  0.89616151  0.40834355     0.63000
H3393       H  0.87333808  0.86467838  0.41270351     0.12400
C3394       C  0.91951143  0.82147826  0.40816128     0.55100
H3395       H  0.93831885  0.85274722  0.40131171     0.08200
C3396       C  0.94246195  0.89400621  0.41571235    -0.05600
C3397       C  0.95440004  0.90839734  0.41228866    -0.06400
C3398       C  0.95536209  0.91663321  0.39521572    -0.15900
C3399       C  0.94435362  0.91030840  0.38088127    -0.01500
C3400       C  0.93263920  0.89566421  0.38420128    -0.09100
C3401       C  0.94185603  0.88542838  0.43441194     0.65200
H3402       H  0.96301112  0.91354630  0.42298706     0.10700
C3403       C  0.94492207  0.91906910  0.36231186     0.63600
H3404       H  0.92409403  0.89044861  0.37348371     0.08000
F3405       F  0.91694941  0.81460000  0.42535668    -0.19500
F3406       F  0.93782606  0.82073864  0.40429744    -0.15700
F3407       F  0.91042629  0.81070350  0.39584221    -0.19200
F3408       F  0.89573084  0.90519338  0.39231185    -0.22600
F3409       F  0.90083603  0.90526118  0.42232740    -0.24000
F3410       F  0.87390348  0.89663070  0.41145176    -0.18000
F3411       F  0.93288075  0.91097656  0.35042675    -0.20500
F3412       F  0.96213746  0.91756711  0.35517329    -0.21700
F3413       F  0.94042322  0.93717219  0.36362666    -0.18900
F3414       F  0.95231442  0.89492467  0.44673580    -0.18900
F3415       F  0.94835247  0.86792723  0.43351450    -0.22800
F3416       F  0.92431676  0.88504018  0.44087977    -0.24400
C3417       C  0.06457551  0.90519788  0.41719036    -0.11200
C3418       C  0.07642511  0.90251964  0.40260495     0.11400
C3419       C  0.07388896  0.91257485  0.38640223    -0.03000
C3420       C  0.05932209  0.92476499  0.38536309    -0.05700
C3421       C  0.04760016  0.92748466  0.40000003    -0.16500
C3422       C  0.05036021  0.91780336  0.41631123     0.02400
C3423       C  0.09029632  0.88808999  0.40449405     0.12400
C3424       C  0.08590223  0.91106707  0.36981089     0.63000
H3425       H  0.05705697  0.93230097  0.37296483     0.12400
C3426       C  0.03832277  0.92079892  0.43268139     0.55100
H3427       H  0.06649572  0.89714573  0.42929728     0.08200
C3428       C  0.10641807  0.89066598  0.41453862    -0.05600
C3429       C  0.11872356  0.87621681  0.41592454    -0.06400
C3430       C  0.11546578  0.85946045  0.40753866    -0.15900
C3431       C  0.09925061  0.85686421  0.39759848    -0.01500
C3432       C  0.08688657  0.87130068  0.39629241    -0.09100
C3433       C  0.11071974  0.90867061  0.42348356     0.65200
H3434       H  0.13112211  0.87791936  0.42355792     0.10700
C3435       C  0.09479972  0.83888345  0.38872052     0.63600
H3436       H  0.07442046  0.86966198  0.38874227     0.08000
F3437       F  0.04397514  0.91074494  0.44745471    -0.19500
F3438       F  0.02073333  0.91581383  0.42869031    -0.15700
F3439       F  0.03866564  0.93886651  0.43753291    -0.19200
F3440       F  0.07584166  0.90421196  0.35558420    -0.22600
F3441       F  0.10079210  0.90008340  0.37236959    -0.24000
F3442       F  0.09214550  0.92810778  0.36511836    -0.18000
F3443       F  0.09696825  0.82489204  0.40099659    -0.20500
F3444       F  0.10615016  0.83621049  0.37411831    -0.21700
F3445       F  0.07712573  0.83833613  0.38251734    -0.18900
F3446       F  0.12735646  0.90842223  0.43211903    -0.18900
F3447       F  0.09771956  0.91271724  0.43627606    -0.22800
F3448       F  0.11107917  0.92220659  0.41054535    -0.24400
C3449       C  0.92357931  0.02875745  0.42032941    -0.11200
C3450       C  0.91358235  0.03285990  0.40472828     0.11400
C3451       C  0.91865166  0.02545206  0.38783558    -0.03000
C3452       C  0.93353565  0.01368907  0.38722772    -0.05700
C3453       C  0.94369547  0.00983552  0.40277417    -0.16500
C3454       C  0.93872831  0.01735472  0.41964980     0.02400
C3455       C  0.89880345  0.04617672  0.40644074     0.12400
C3456       C  0.90895337  0.03058619  0.37045745     0.63000
H3457       H  0.93776824  0.00781775  0.37449610     0.12400
C3458       C  0.94952333  0.01356027  0.43673464     0.55100
H3459       H  0.91963287  0.03497227  0.43299175     0.08200
C3460       C  0.88162821  0.04147640  0.41349918    -0.05600
C3461       C  0.86898194  0.05534019  0.41642685    -0.06400
C3462       C  0.87300095  0.07344675  0.41226498    -0.15900
C3463       C  0.88996298  0.07800620  0.40460563    -0.01500
C3464       C  0.90271626  0.06420435  0.40203595    -0.09100
C3465       C  0.87681318  0.02200403  0.41811616     0.65200
H3466       H  0.85592104  0.05221524  0.42232004     0.10700
C3467       C  0.89479375  0.09736432  0.39965940     0.63600
H3468       H  0.91604360  0.06738781  0.39681665     0.08000
F3469       F  0.94153702  0.02115786  0.45186246    -0.19500
F3470       F  0.96672917  0.02074025  0.43507436    -0.15700
F3471       F  0.95077862  0.99510144  0.43955993    -0.19200
F3472       F  0.91257290  0.04849036  0.36635777    -0.22600
F3473       F  0.89048217  0.02832745  0.37237132    -0.24000
F3474       F  0.91454883  0.02007080  0.35602201    -0.18000
F3475       F  0.91258651  0.09895185  0.39400683    -0.20500
F3476       F  0.89245953  0.10853887  0.41447583    -0.21700
F3477       F  0.88380218  0.10313359  0.38567413    -0.18900
F3478       F  0.85897779  0.02031805  0.42361816    -0.18900
F3479       F  0.88775834  0.01584030  0.43197523    -0.22800
F3480       F  0.87922645  0.01111960  0.40311553    -0.24400
C3481       C  0.05386464  0.04531908  0.41787667    -0.11200
C3482       C  0.06214774  0.05048121  0.40159527     0.11400
C3483       C  0.05795119  0.04114922  0.38540290    -0.03000
C3484       C  0.04537452  0.02686367  0.38608166    -0.05700
C3485       C  0.03713586  0.02165474  0.40236125    -0.16500
C3486       C  0.04120906  0.03108075  0.41854508     0.02400
C3487       C  0.07573976  0.06526715  0.40211058     0.12400
C3488       C  0.06698671  0.04601718  0.36759136     0.63000
H3489       H  0.04203898  0.01938714  0.37392512     0.12400
C3490       C  0.03234093  0.02605750  0.43638752     0.55100
H3491       H  0.05751267  0.05253397  0.43010060     0.08200
C3492       C  0.07071069  0.08376189  0.40261343    -0.05600
C3493       C  0.08444400  0.09697080  0.40355139    -0.06400
C3494       C  0.10275528  0.09209908  0.40396050    -0.15900
C3495       C  0.10777098  0.07366274  0.40331153    -0.01500
C3496       C  0.09408042  0.06046924  0.40255983    -0.09100
C3497       C  0.05096616  0.08944051  0.40252128     0.65200
H3498       H  0.08100658  0.11119483  0.40435744     0.10700
C3499       C  0.12753115  0.06806245  0.40351812     0.63600
H3500       H  0.09755890  0.04623507  0.40236170     0.08000
F3501       F  0.01380781  0.02817352  0.43507978    -0.19500
F3502       F  0.03843800  0.03684294  0.45045361    -0.15700
F3503       F  0.03616944  0.00825365  0.44066030    -0.19200
F3504       F  0.08523784  0.04207916  0.36852381    -0.22600
F3505       F  0.06486473  0.06425940  0.36399845    -0.24000
F3506       F  0.05966583  0.03642607  0.35325427    -0.18000
F3507       F  0.12948062  0.04943346  0.40364093    -0.20500
F3508       F  0.13600217  0.07486798  0.41876740    -0.21700
F3509       F  0.13607061  0.07476249  0.38826204    -0.18900
F3510       F  0.04911553  0.10806222  0.40154279    -0.18900
F3511       F  0.04264103  0.08355374  0.41820779    -0.22800
F3512       F  0.04215997  0.08198664  0.38778712    -0.24400
C3513       C  0.94110146  0.89736121  0.59808832    -0.11200
C3514       C  0.92991895  0.89536982  0.61326771     0.11400
C3515       C  0.93478448  0.90366245  0.62983368    -0.03000
C3516       C  0.95003805  0.91510738  0.63016599    -0.05700
C3517       C  0.96046564  0.91809634  0.61458487    -0.16500
C3518       C  0.95621904  0.90887332  0.59835245     0.02400
C3519       C  0.91295804  0.88488532  0.61094262     0.12400
C3520       C  0.92391674  0.90047160  0.64696492     0.63000
H3521       H  0.95367282  0.92226235  0.64242720     0.12400
C3522       C  0.96724261  0.91171570  0.58125009     0.55100
H3523       H  0.93735711  0.89039508  0.58574451     0.08200
C3524       C  0.89795107  0.89209319  0.60140186    -0.05600
C3525       C  0.88340662  0.88053058  0.59721484    -0.06400
C3526       C  0.88316603  0.86243323  0.60294507    -0.15900
C3527       C  0.89759883  0.85561473  0.61358230    -0.01500
C3528       C  0.91252957  0.86692883  0.61702535    -0.09100
C3529       C  0.89723849  0.91191841  0.59584861     0.65200
H3530       H  0.87211819  0.88547956  0.58927277     0.10700
C3531       C  0.89756886  0.83632262  0.62069435     0.63600
H3532       H  0.92422175  0.86173180  0.62416006     0.08000
F3533       F  0.96061700  0.90163305  0.56691146    -0.19500
F3534       F  0.98492886  0.90654837  0.58430219    -0.15700
F3535       F  0.96689469  0.92976148  0.57626853    -0.19200
F3536       F  0.92542810  0.88254485  0.65211815    -0.22600
F3537       F  0.90588444  0.90447813  0.64403171    -0.24000
F3538       F  0.93003190  0.91110297  0.66112760    -0.18000
F3539       F  0.91346657  0.83218173  0.62969956    -0.20500
F3540       F  0.89560314  0.82429981  0.60649395    -0.21700
F3541       F  0.88344783  0.83402813  0.63274839    -0.18900
F3542       F  0.88097632  0.91624872  0.58760815    -0.18900
F3543       F  0.91097125  0.91588395  0.58379676    -0.22800
F3544       F  0.89912891  0.92273711  0.61098889    -0.24400
C3545       C  0.93837387  0.03219148  0.59223968    -0.11200
C3546       C  0.92921495  0.03686707  0.60816243     0.11400
C3547       C  0.93401593  0.02861507  0.62478198    -0.03000
C3548       C  0.94865782  0.01650432  0.62502502    -0.05700
C3549       C  0.95795245  0.01204105  0.60912656    -0.16500
C3550       C  0.95262064  0.01965685  0.59238819     0.02400
C3551       C  0.91385788  0.04959196  0.60660986     0.12400
C3552       C  0.92339907  0.03218000  0.64199138     0.63000
H3553       H  0.95272201  0.01002167  0.63753460     0.12400
C3554       C  0.96160814  0.01411179  0.57477407     0.55100
H3555       H  0.93401388  0.03826550  0.57962288     0.08200
C3556       C  0.91641909  0.06859237  0.60636231    -0.05600
C3557       C  0.90121549  0.07977636  0.60394581    -0.06400
C3558       C  0.88397247  0.07241829  0.60094275    -0.15900
C3559       C  0.88150916  0.05344154  0.60074472    -0.01500
C3560       C  0.89656222  0.04227698  0.60382652    -0.09100
C3561       C  0.93517930  0.07691307  0.60792490     0.65200
H3562       H  0.90275956  0.09436108  0.60363436     0.10700
C3563       C  0.86310007  0.04511813  0.59700475     0.63600
H3564       H  0.89508050  0.02768603  0.60358931     0.08000
F3565       F  0.97987483  0.01812090  0.57541489    -0.19500
F3566       F  0.95421636  0.02301399  0.56003056    -0.15700
F3567       F  0.95941696  0.99571345  0.57209413    -0.19200
F3568       F  0.90566453  0.02663232  0.63972448    -0.22600
F3569       F  0.92365108  0.05043747  0.64599924    -0.24000
F3570       F  0.93051527  0.02290399  0.65664407    -0.18000
F3571       F  0.85761043  0.04953717  0.57966467    -0.20500
F3572       F  0.85060236  0.05165720  0.60927304    -0.21700
F3573       F  0.86342379  0.02643110  0.59843543    -0.18900
F3574       F  0.93457084  0.09564126  0.60774501    -0.18900
F3575       F  0.94574504  0.07138646  0.59353393    -0.22800
F3576       F  0.94331540  0.07152341  0.62387940    -0.24400
C3577       C  0.10943626  0.88348581  0.59193663    -0.11200
C3578       C  0.09396419  0.87932024  0.60209361     0.11400
C3579       C  0.09050574  0.86119088  0.60733040    -0.03000
C3580       C  0.10305840  0.84774456  0.60247320    -0.05700
C3581       C  0.11817368  0.85182880  0.59174165    -0.16500
C3582       C  0.12159672  0.86995581  0.58647810     0.02400
C3583       C  0.08035988  0.89376726  0.60468932     0.12400
C3584       C  0.07323253  0.85601146  0.61724469     0.63000
H3585       H  0.10076502  0.83377645  0.60633414     0.12400
C3586       C  0.13779325  0.87494744  0.57483738     0.55100
H3587       H  0.11146613  0.89736743  0.58763275     0.08200
C3588       C  0.08104659  0.90621750  0.61922370    -0.05600
C3589       C  0.06717955  0.91918247  0.62070186    -0.06400
C3590       C  0.05328004  0.92030547  0.60778429    -0.15900
C3591       C  0.05325736  0.90848873  0.59271703    -0.01500
C3592       C  0.06681562  0.89529992  0.59151885    -0.09100
C3593       C  0.09649626  0.90603810  0.63278861     0.65200
H3594       H  0.06715131  0.92871997  0.63181903     0.10700
C3595       C  0.03919178  0.91001136  0.57780247     0.63600
H3596       H  0.06697892  0.88594632  0.58024124     0.08000
F3597       F  0.14030054  0.89350084  0.57393253    -0.19500
F3598       F  0.13514791  0.86858785  0.55744355    -0.15700
F3599       F  0.15340388  0.86741211  0.58191126    -0.19200
F3600       F  0.05840720  0.85959722  0.60640703    -0.22600
F3601       F  0.07171157  0.86581706  0.63306969    -0.24000
F3602       F  0.07287225  0.83780309  0.62167094    -0.18000
F3603       F  0.03905919  0.92743643  0.57094445    -0.20500
F3604       F  0.02228127  0.90587757  0.58456333    -0.21700
F3605       F  0.04269122  0.89827187  0.56365129    -0.18900
F3606       F  0.09482036  0.91973830  0.64544343    -0.18900
F3607       F  0.11276936  0.90843717  0.62387944    -0.22800
F3608       F  0.09686995  0.88971171  0.64190811    -0.24400
C3609       C  0.06472232  0.03923629  0.58459165    -0.11200
C3610       C  0.07780797  0.04214808  0.59803085     0.11400
C3611       C  0.07755153  0.03150276  0.61398349    -0.03000
C3612       C  0.06427187  0.01789072  0.61573520    -0.05700
C3613       C  0.05130587  0.01484465  0.60216809    -0.16500
C3614       C  0.05153377  0.02557972  0.58626233     0.02400
C3615       C  0.09170603  0.05637373  0.59476544     0.12400
C3616       C  0.09115063  0.03462784  0.62908449     0.63000
H3617       H  0.06380793  0.00952359  0.62777188     0.12400
C3618       C  0.03802127  0.02257311  0.57105622     0.55100
H3619       H  0.06502701  0.04776238  0.57265831     0.08200
C3620       C  0.10683272  0.05321545  0.58344647    -0.05600
C3621       C  0.11908319  0.06745726  0.58028897    -0.06400
C3622       C  0.11662392  0.08461151  0.58796965    -0.15900
C3623       C  0.10134130  0.08791424  0.59904757    -0.01500
C3624       C  0.08909350  0.07361220  0.60229988    -0.09100
C3625       C  0.10995186  0.03492222  0.57462046     0.65200
H3626       H  0.13073204  0.06534833  0.57166092     0.10700
C3627       C  0.09753215  0.10663726  0.60659300     0.63600
H3628       H  0.07718163  0.07581986  0.61052894     0.08000
F3629       F  0.04247799  0.03247369  0.55576848    -0.19500
F3630       F  0.02097794  0.02783845  0.57658698    -0.15700
F3631       F  0.03759564  0.00448235  0.56627905    -0.19200
F3632       F  0.08885608  0.05176867  0.63618347    -0.22600
F3633       F  0.10858099  0.03308954  0.62250080    -0.24000
F3634       F  0.08908164  0.02222243  0.64299322    -0.18000
F3635       F  0.08142414  0.10713183  0.61613739    -0.20500
F3636       F  0.09636258  0.11896987  0.59253491    -0.21700
F3637       F  0.11126391  0.11182304  0.61819997    -0.18900
F3638       F  0.12596610  0.03454969  0.56491895    -0.18900
F3639       F  0.09596874  0.03105980  0.56280689    -0.22800
F3640       F  0.11077965  0.02155254  0.58768852    -0.24400
C3641       C  0.39788113  0.86157513  0.92967344    -0.11200
C3642       C  0.39479394  0.87883540  0.92242750     0.11400
C3643       C  0.39722080  0.88205404  0.90370373    -0.03000
C3644       C  0.40133541  0.86731016  0.89249612    -0.05700
C3645       C  0.40436874  0.85008261  0.89977308    -0.16500
C3646       C  0.40322981  0.84714840  0.91860812     0.02400
C3647       C  0.39067907  0.89358703  0.93515213     0.12400
C3648       C  0.39639943  0.90104069  0.89582661     0.63000
H3649       H  0.40293046  0.86921996  0.87804555     0.12400
C3650       C  0.40841729  0.82909861  0.92690233     0.55100
H3651       H  0.39667948  0.85970306  0.94416589     0.08200
C3652       C  0.37281392  0.89734952  0.94082473    -0.05600
C3653       C  0.37012141  0.91134545  0.95335843    -0.06400
C3654       C  0.38474763  0.92110779  0.96052776    -0.15900
C3655       C  0.40265693  0.91712259  0.95504376    -0.01500
C3656       C  0.40528665  0.90331339  0.94233002    -0.09100
C3657       C  0.35684444  0.88620741  0.93417239     0.65200
H3658       H  0.35660859  0.91455894  0.95801198     0.10700
C3659       C  0.41889326  0.92716269  0.96273709     0.63600
H3660       H  0.41882709  0.89977236  0.93800273     0.08000
F3661       F  0.40603129  0.82895317  0.94547812    -0.19500
F3662       F  0.42644896  0.82561392  0.92332458    -0.15700
F3663       F  0.39793219  0.81544622  0.91958533    -0.19200
F3664       F  0.40982132  0.91159702  0.90351213    -0.22600
F3665       F  0.37977646  0.90879879  0.89932866    -0.24000
F3666       F  0.39901366  0.90103313  0.87727722    -0.18000
F3667       F  0.43490135  0.92172668  0.95469109    -0.20500
F3668       F  0.42033021  0.92390105  0.98109011    -0.21700
F3669       F  0.41699312  0.94554902  0.95988802    -0.18900
F3670       F  0.34056660  0.89277672  0.94067221    -0.18900
F3671       F  0.35869471  0.86851070  0.93997891    -0.22800
F3672       F  0.35609502  0.88645281  0.91549014    -0.24400
C3673       C  0.36680512  0.89286522  0.06988928    -0.11200
C3674       C  0.38302891  0.89443486  0.07962449     0.11400
C3675       C  0.39457221  0.90949439  0.07668519    -0.03000
C3676       C  0.38933004  0.92262526  0.06397753    -0.05700
C3677       C  0.37322969  0.92092388  0.05406947    -0.16500
C3678       C  0.36159352  0.90601307  0.05715400     0.02400
C3679       C  0.38824701  0.87939290  0.09180529     0.12400
C3680       C  0.41249721  0.91149189  0.08661444     0.63000
H3681       H  0.39806044  0.93408717  0.06116693     0.12400
C3682       C  0.34378316  0.90411751  0.04710084     0.55100
H3683       H  0.35840376  0.88104930  0.07216245     0.08200
C3684       C  0.38119387  0.87754381  0.10951019    -0.05600
C3685       C  0.38763957  0.86333551  0.12047861    -0.06400
C3686       C  0.40084200  0.85122116  0.11418280    -0.15900
C3687       C  0.40718515  0.85262807  0.09613245    -0.01500
C3688       C  0.40055659  0.86665133  0.08518094    -0.09100
C3689       C  0.36703322  0.89055848  0.11669638     0.65200
H3690       H  0.38271224  0.86180168  0.13419630     0.10700
C3691       C  0.42077353  0.83934615  0.08832659     0.63600
H3692       H  0.40532861  0.86812822  0.07139815     0.08000
F3693       F  0.33433487  0.88882063  0.05245899    -0.19500
F3694       F  0.34682347  0.90285485  0.02870150    -0.15700
F3695       F  0.33311229  0.91907822  0.05050442    -0.19200
F3696       F  0.42391762  0.89742178  0.08208592    -0.22600
F3697       F  0.40961598  0.91130326  0.10508943    -0.24000
F3698       F  0.42117434  0.92754342  0.08224211    -0.18000
F3699       F  0.42227521  0.84108826  0.06973968    -0.20500
F3700       F  0.41541999  0.82176376  0.09202601    -0.21700
F3701       F  0.43767005  0.84245943  0.09576453    -0.18900
F3702       F  0.36247360  0.88676838  0.13446800    -0.18900
F3703       F  0.35147836  0.88932598  0.10636449    -0.22800
F3704       F  0.37350977  0.90811606  0.11593873    -0.24400
C3705       C  0.40179572  0.03053566  0.94081216    -0.11200
C3706       C  0.38740100  0.04099734  0.93432547     0.11400
C3707       C  0.36975079  0.03841984  0.94128568    -0.03000
C3708       C  0.36705910  0.02509821  0.95460110    -0.05700
C3709       C  0.38140714  0.01440526  0.96086914    -0.16500
C3710       C  0.39916518  0.01734736  0.95425217     0.02400
C3711       C  0.39117084  0.05407970  0.91967542     0.12400
C3712       C  0.35379109  0.04926599  0.93423864     0.63000
H3713       H  0.35364795  0.02261076  0.95997798     0.12400
C3714       C  0.41527392  0.00692244  0.96161252     0.55100
H3715       H  0.41513533  0.03280435  0.93516999     0.08200
C3716       C  0.39817597  0.07155689  0.92317452    -0.05600
C3717       C  0.40116171  0.08323732  0.90848288    -0.06400
C3718       C  0.39819042  0.07762608  0.89060539    -0.15900
C3719       C  0.39206727  0.05977733  0.88707170    -0.01500
C3720       C  0.38838137  0.04838804  0.90182123    -0.09100
C3721       C  0.40322854  0.07752911  0.94218224     0.65200
H3722       H  0.40645583  0.09673245  0.91078073     0.10700
C3723       C  0.39019030  0.05156763  0.86833425     0.63600
H3724       H  0.38364574  0.03469407  0.89938581     0.08000
F3725       F  0.41672441  0.00973451  0.98004744    -0.19500
F3726       F  0.43133881  0.01240981  0.95365340    -0.15700
F3727       F  0.41316332  0.98863416  0.95835188    -0.19200
F3728       F  0.35032430  0.04448645  0.91649364    -0.22600
F3729       F  0.35754401  0.06759173  0.93499601    -0.24000
F3730       F  0.33829566  0.04611300  0.94429128    -0.18000
F3731       F  0.40259085  0.03767281  0.86658809    -0.20500
F3732       F  0.39312673  0.06378042  0.85447918    -0.21700
F3733       F  0.37295582  0.04449401  0.86631302    -0.18900
F3734       F  0.40870657  0.09546288  0.94262730    -0.18900
F3735       F  0.41735899  0.06702783  0.94848777    -0.22800
F3736       F  0.38861403  0.07561898  0.95368526    -0.24400
C3737       C  0.36385310  0.03783671  0.07306108    -0.11200
C3738       C  0.38134889  0.03638686  0.08036327     0.11400
C3739       C  0.39257257  0.02168978  0.07549823    -0.03000
C3740       C  0.38638521  0.00961329  0.06230719    -0.05700
C3741       C  0.36929239  0.01150194  0.05435767    -0.16500
C3742       C  0.35752148  0.02541739  0.06006595     0.02400
C3743       C  0.38761936  0.05017942  0.09340852     0.12400
C3744       C  0.41092559  0.01866472  0.08428525     0.63000
H3745       H  0.39495338  0.99861092  0.05783392     0.12400
C3746       C  0.33854855  0.02705533  0.05241835     0.55100
H3747       H  0.35534927  0.04892533  0.07742507     0.08200
C3748       C  0.39642713  0.06625208  0.08774454    -0.05600
C3749       C  0.40380031  0.07775171  0.10101865    -0.06400
C3750       C  0.40225214  0.07368956  0.11950232    -0.15900
C3751       C  0.39301891  0.05783901  0.12510437    -0.01500
C3752       C  0.38567059  0.04638106  0.11185607    -0.09100
C3753       C  0.39793337  0.07116526  0.06782040     0.65200
H3754       H  0.41080119  0.09004285  0.09709772     0.10700
C3755       C  0.39156955  0.05269301  0.14493167     0.63600
H3756       H  0.37873893  0.03403940  0.11574326     0.08000
F3757       F  0.33937521  0.03139470  0.03423968    -0.19500
F3758       F  0.32869023  0.04033344  0.06117981    -0.15700
F3759       F  0.32945684  0.01079244  0.05444654    -0.19200
F3760       F  0.40869699  0.01563320  0.10260477    -0.22600
F3761       F  0.42187647  0.03364629  0.08181758    -0.24000
F3762       F  0.41974048  0.00381900  0.07705659    -0.18000
F3763       F  0.38369842  0.03582215  0.14724111    -0.20500
F3764       F  0.38107300  0.06522214  0.15394303    -0.21700
F3765       F  0.40864300  0.05223505  0.15260819    -0.18900
F3766       F  0.40709805  0.08733589  0.06527843    -0.18900
F3767       F  0.38081799  0.07295959  0.06047224    -0.22800
F3768       F  0.40712137  0.05780154  0.05854877    -0.24400
C3769       C  0.93994177  0.38673881  0.92889588    -0.11200
C3770       C  0.92684748  0.37320102  0.92658420     0.11400
C3771       C  0.92791273  0.35682535  0.93646536    -0.03000
C3772       C  0.94201237  0.35478619  0.94895591    -0.05700
C3773       C  0.95482288  0.36851034  0.95159907    -0.16500
C3774       C  0.95390948  0.38479882  0.94157229     0.02400
C3775       C  0.91192702  0.37672727  0.91390354     0.12400
C3776       C  0.91425055  0.34165107  0.93383468     0.63000
H3777       H  0.94323505  0.34243987  0.95678697     0.12400
C3778       C  0.96725214  0.40017266  0.94465258     0.55100
H3779       H  0.93888858  0.39898009  0.92088135     0.08200
C3780       C  0.89707724  0.38771876  0.91876789    -0.05600
C3781       C  0.88313473  0.39010880  0.90614358    -0.06400
C3782       C  0.88381076  0.38199587  0.88901555    -0.15900
C3783       C  0.89890363  0.37131587  0.88403875    -0.01500
C3784       C  0.91284529  0.36894406  0.89668566    -0.09100
C3785       C  0.89616440  0.39713519  0.93702303     0.65200
H3786       H  0.87166151  0.39859630  0.90943316     0.10700
C3787       C  0.90055570  0.36283854  0.86541544     0.63600
H3788       H  0.92461185  0.36091233  0.89330320     0.08000
F3789       F  0.96328562  0.41509869  0.93402898    -0.19500
F3790       F  0.98459688  0.39465228  0.94046660    -0.15700
F3791       F  0.96669691  0.40547967  0.96257813    -0.19200
F3792       F  0.91534700  0.33510052  0.91636288    -0.22600
F3793       F  0.89694032  0.34800191  0.93691341    -0.24000
F3794       F  0.91733880  0.32734837  0.94555723    -0.18000
F3795       F  0.91733628  0.35496092  0.86281399    -0.20500
F3796       F  0.89822565  0.37589102  0.85217529    -0.21700
F3797       F  0.88758261  0.34949569  0.86345619    -0.18900
F3798       F  0.87979941  0.40586661  0.93951872    -0.18900
F3799       F  0.90977695  0.40994394  0.93821859    -0.22800
F3800       F  0.89821896  0.38466095  0.95083448    -0.24400
C3801       C  0.07145623  0.34610236  0.92938907    -0.11200
C3802       C  0.07344051  0.36263238  0.92026957     0.11400
C3803       C  0.06142247  0.37708039  0.92385918    -0.03000
C3804       C  0.04870940  0.37500708  0.93782688    -0.05700
C3805       C  0.04726491  0.35874243  0.94753309    -0.16500
C3806       C  0.05825385  0.34380549  0.94288288     0.02400
C3807       C  0.08854983  0.36471789  0.90733291     0.12400
C3808       C  0.06178757  0.39436076  0.91266547     0.63000
H3809       H  0.03964608  0.38599416  0.94121991     0.12400
C3810       C  0.05581019  0.32554521  0.95200436     0.55100
H3811       H  0.08052285  0.33511475  0.92601011     0.08200
C3812       C  0.10572480  0.37102282  0.91302428    -0.05600
C3813       C  0.11886717  0.37475228  0.89982362    -0.06400
C3814       C  0.11538649  0.37202725  0.88137763    -0.15900
C3815       C  0.09848334  0.36490489  0.87576349    -0.01500
C3816       C  0.08528908  0.36123395  0.88898674    -0.09100
C3817       C  0.11002115  0.37394859  0.93292548     0.65200
H3818       H  0.13192745  0.38016300  0.90376051     0.10700
C3819       C  0.09412368  0.36201805  0.85591189     0.63600
H3820       H  0.07207324  0.35619588  0.88509330     0.08000
F3821       F  0.06053603  0.32674661  0.97005679    -0.19500
F3822       F  0.06643352  0.31235374  0.94406781    -0.15700
F3823       F  0.03793016  0.32010779  0.95067071    -0.19200
F3824       F  0.05761801  0.39032502  0.89487716    -0.22600
F3825       F  0.07874061  0.40227632  0.91330745    -0.24000
F3826       F  0.04934274  0.40690363  0.91881354    -0.18000
F3827       F  0.10572613  0.34927970  0.84871961    -0.20500
F3828       F  0.09606793  0.37814758  0.84657923    -0.21700
F3829       F  0.07656975  0.35590215  0.85341422    -0.18900
F3830       F  0.12749282  0.38026862  0.93545180    -0.18900
F3831       F  0.10828642  0.35775999  0.94217421    -0.22800
F3832       F  0.09826646  0.38645339  0.94029864    -0.24400
C3833       C  0.94497889  0.37556130  0.07125614    -0.11200
C3834       C  0.93118325  0.36260533  0.07285484     0.11400
C3835       C  0.92982757  0.34843649  0.06004927    -0.03000
C3836       C  0.94327856  0.34700748  0.04665567    -0.05700
C3837       C  0.95718034  0.35989907  0.04517486    -0.16500
C3838       C  0.95781264  0.37473989  0.05727397     0.02400
C3839       C  0.91770616  0.36514986  0.08746056     0.12400
C3840       C  0.91386761  0.33544045  0.06009278     0.63000
H3841       H  0.94277533  0.33613287  0.03685127     0.12400
C3842       C  0.97110553  0.39026689  0.05467489     0.55100
H3843       H  0.94520059  0.38669699  0.08077628     0.08200
C3844       C  0.92100816  0.35938862  0.10544042    -0.05600
C3845       C  0.90833056  0.36384130  0.11893091    -0.06400
C3846       C  0.89275516  0.37389802  0.11487560    -0.15900
C3847       C  0.88908825  0.37892017  0.09673707    -0.01500
C3848       C  0.90186728  0.37469267  0.08333142    -0.09100
C3849       C  0.93801658  0.34893955  0.11033759     0.65200
H3850       H  0.91076205  0.36001620  0.13287623     0.10700
C3851       C  0.87144822  0.38803732  0.09146592     0.63600
H3852       H  0.89970742  0.37896833  0.06947216     0.08000
F3853       F  0.96992900  0.40283901  0.06849332    -0.19500
F3854       F  0.96735409  0.39897824  0.03853331    -0.15700
F3855       F  0.98868820  0.38399410  0.05428397    -0.19200
F3856       F  0.89812558  0.34488351  0.05654305    -0.22600
F3857       F  0.91231140  0.32704964  0.07673837    -0.24000
F3858       F  0.91566633  0.32213256  0.04705202    -0.18000
F3859       F  0.87027411  0.40494075  0.09934479    -0.20500
F3860       F  0.85705590  0.37748222  0.09718580    -0.21700
F3861       F  0.86999183  0.39025827  0.07291522    -0.18900
F3862       F  0.93826435  0.34407637  0.12843149    -0.18900
F3863       F  0.95314130  0.35943839  0.10692387    -0.22800
F3864       F  0.93903395  0.33328861  0.10017106    -0.24400
C3865       C  0.07552210  0.33881481  0.05656880    -0.11200
C3866       C  0.07911339  0.35547607  0.06491538     0.11400
C3867       C  0.06762149  0.37044812  0.06170946    -0.03000
C3868       C  0.05272676  0.36814879  0.05015946    -0.05700
C3869       C  0.04937276  0.35161831  0.04149101    -0.16500
C3870       C  0.06067461  0.33653495  0.04491382     0.02400
C3871       C  0.09551483  0.35719378  0.07626775     0.12400
C3872       C  0.07150153  0.38894638  0.06982498     0.63000
H3873       H  0.04397262  0.37949858  0.04710406     0.12400
C3874       C  0.05790623  0.31794224  0.03659912     0.55100
H3875       H  0.08454487  0.32751965  0.05904723     0.08200
C3876       C  0.09558785  0.35252519  0.09482898    -0.05600
C3877       C  0.11119077  0.35631279  0.10507777    -0.06400
C3878       C  0.12662588  0.36410858  0.09714708    -0.15900
C3879       C  0.12703225  0.36718925  0.07821178    -0.01500
C3880       C  0.11124794  0.36398055  0.06815687    -0.09100
C3881       C  0.07927216  0.34364701  0.10367209     0.65200
H3882       H  0.11130573  0.35363491  0.11949341     0.10700
C3883       C  0.14365955  0.37326737  0.06776360     0.63600
H3884       H  0.11116286  0.36684732  0.05375557     0.08000
F3885       F  0.05683516  0.30517264  0.05026884    -0.19500
F3886       F  0.07253086  0.31389496  0.02567920    -0.15700
F3887       F  0.04233941  0.31658345  0.02631174    -0.19200
F3888       F  0.08752210  0.39567468  0.06286749    -0.22600
F3889       F  0.07298141  0.38766039  0.08842179    -0.24000
F3890       F  0.05790485  0.40122789  0.06594737    -0.18000
F3891       F  0.14703686  0.36099658  0.05405352    -0.20500
F3892       F  0.15908201  0.37437319  0.07828673    -0.21700
F3893       F  0.14040928  0.39002494  0.06008727    -0.18900
F3894       F  0.08200953  0.34069576  0.12197317    -0.18900
F3895       F  0.07595188  0.32710629  0.09558202    -0.22800
F3896       F  0.06416930  0.35448382  0.10172425    -0.24400
C3897       C  0.62595269  0.90414458  0.92820183    -0.11200
C3898       C  0.61027747  0.89375685  0.93086449     0.11400
C3899       C  0.59870412  0.89731212  0.94567443    -0.03000
C3900       C  0.60261976  0.91219704  0.95671923    -0.05700
C3901       C  0.61809760  0.92279517  0.95387154    -0.16500
C3902       C  0.63021123  0.91864224  0.93970209     0.02400
C3903       C  0.60638452  0.87912161  0.91793481     0.12400
C3904       C  0.58285292  0.88500405  0.95031261     0.63000
H3905       H  0.59384113  0.91554098  0.96795872     0.12400
C3906       C  0.64762017  0.92925835  0.93707511     0.55100
H3907       H  0.63476507  0.90079478  0.91699353     0.08200
C3908       C  0.59575635  0.88215524  0.90230710    -0.05600
C3909       C  0.59141908  0.86729342  0.89134329    -0.06400
C3910       C  0.59799924  0.84994601  0.89523978    -0.15900
C3911       C  0.60964625  0.84716094  0.91018838    -0.01500
C3912       C  0.61359716  0.86195183  0.92144087    -0.09100
C3913       C  0.58910933  0.90096477  0.89725836     0.65200
H3914       H  0.58270509  0.86904325  0.87967570     0.10700
C3915       C  0.61716040  0.82856998  0.91466689     0.63600
H3916       H  0.62203979  0.86020342  0.93330277     0.08000
F3917       F  0.64375656  0.94713908  0.93318008    -0.19500
F3918       F  0.65789997  0.92239524  0.92302550    -0.15700
F3919       F  0.65786265  0.92846369  0.95272834    -0.19200
F3920       F  0.58931621  0.86811533  0.95508749    -0.22600
F3921       F  0.57134199  0.88318562  0.93569314    -0.24000
F3922       F  0.57285965  0.89166123  0.96467820    -0.18000
F3923       F  0.62749553  0.82228884  0.90042239    -0.20500
F3924       F  0.60305474  0.81664255  0.91782888    -0.21700
F3925       F  0.62806626  0.82892755  0.92990514    -0.18900
F3926       F  0.57981677  0.90093060  0.88098259    -0.18900
F3927       F  0.60368188  0.91260484  0.89554630    -0.22800
F3928       F  0.57763711  0.90751602  0.91045392    -0.24400
C3929       C  0.58746632  0.03655746  0.93359370    -0.11200
C3930       C  0.60097966  0.04221505  0.92153427     0.11400
C3931       C  0.61855739  0.03472952  0.92254691    -0.03000
C3932       C  0.62203434  0.02155473  0.93577949    -0.05700
C3933       C  0.60866901  0.01628485  0.94814040    -0.16500
C3934       C  0.59103870  0.02363642  0.94705263     0.02400
C3935       C  0.59680277  0.05740247  0.90928179     0.12400
C3936       C  0.63371642  0.04120005  0.91024337     0.63000
H3937       H  0.63540194  0.01569595  0.93704823     0.12400
C3938       C  0.57624928  0.01805724  0.96022396     0.55100
H3939       H  0.57423468  0.04277807  0.93267484     0.08200
C3940       C  0.58809046  0.05486621  0.89243061    -0.05600
C3941       C  0.58455412  0.07017459  0.88171202    -0.06400
C3942       C  0.58905839  0.08764391  0.88764907    -0.15900
C3943       C  0.59711838  0.09018546  0.90480787    -0.01500
C3944       C  0.60103285  0.07487335  0.91532620    -0.09100
C3945       C  0.58214474  0.03621548  0.88608896     0.65200
H3946       H  0.57793632  0.06868994  0.86870971     0.10700
C3947       C  0.60071778  0.10896767  0.91229486     0.63600
H3948       H  0.60720631  0.07637887  0.92854366     0.08000
F3949       F  0.55998329  0.02650955  0.95640509    -0.19500
F3950       F  0.58122207  0.02263682  0.97766459    -0.15700
F3951       F  0.57345740  0.99957258  0.95932321    -0.19200
F3952       F  0.63769940  0.05909716  0.91398094    -0.22600
F3953       F  0.62858732  0.03973658  0.89232352    -0.24000
F3954       F  0.64933881  0.03116311  0.91262360    -0.18000
F3955       F  0.60795060  0.10833029  0.92957811    -0.20500
F3956       F  0.58466816  0.11854233  0.91304842    -0.21700
F3957       F  0.61282045  0.11806144  0.90129094    -0.18900
F3958       F  0.57437695  0.03681054  0.86904187    -0.18900
F3959       F  0.56949539  0.02921098  0.89797132    -0.22800
F3960       F  0.59680142  0.02466218  0.88536671    -0.24400
C3961       C  0.61394752  0.86995905  0.08062800    -0.11200
C3962       C  0.61068344  0.88798032  0.08551765     0.11400
C3963       C  0.60201096  0.89193120  0.10213250    -0.03000
C3964       C  0.59682172  0.87746937  0.11339947    -0.05700
C3965       C  0.59995162  0.85944943  0.10841797    -0.16500
C3966       C  0.60868952  0.85551558  0.09186785     0.02400
C3967       C  0.61452274  0.90223390  0.07195727     0.12400
C3968       C  0.59789169  0.91128508  0.10769580     0.63000
H3969       H  0.58996758  0.88008258  0.12607928     0.12400
C3970       C  0.61191788  0.83614640  0.08592197     0.55100
H3971       H  0.62027106  0.86731532  0.06768282     0.08200
C3972       C  0.63196925  0.90981994  0.06947670    -0.05600
C3973       C  0.63425781  0.92327348  0.05618055    -0.06400
C3974       C  0.61984698  0.92866369  0.04509578    -0.15900
C3975       C  0.60252463  0.92073710  0.04727892    -0.01500
C3976       C  0.60016464  0.90764806  0.06082907    -0.09100
C3977       C  0.64817423  0.90325329  0.08024648     0.65200
H3978       H  0.64741626  0.92936148  0.05394260     0.10700
C3979       C  0.58668642  0.92592448  0.03521412     0.63600
H3980       H  0.58707473  0.90130422  0.06276474     0.08000
F3981       F  0.62392992  0.82790844  0.09766299    -0.19500
F3982       F  0.61906857  0.83528748  0.06863213    -0.15700
F3983       F  0.59575801  0.82666767  0.08597713    -0.19200
F3984       F  0.58552172  0.91879753  0.09584543    -0.22600
F3985       F  0.61355584  0.92154188  0.10747115    -0.24000
F3986       F  0.59067765  0.91214015  0.12495729    -0.18000
F3987       F  0.59040818  0.92129822  0.01748871    -0.20500
F3988       F  0.58364181  0.94434944  0.03621527    -0.21700
F3989       F  0.57089643  0.91715631  0.04026488    -0.18900
F3990       F  0.66336701  0.91379272  0.07704927    -0.18900
F3991       F  0.65211412  0.88564014  0.07537340    -0.22800
F3992       F  0.64452554  0.90382248  0.09857057    -0.24400
C3993       C  0.60926695  0.08444457  0.07087259    -0.11200
C3994       C  0.61021230  0.06651425  0.07707419     0.11400
C3995       C  0.60809171  0.06263905  0.09572248    -0.03000
C3996       C  0.60377948  0.07688384  0.10747024    -0.05700
C3997       C  0.60200039  0.09463182  0.10111247    -0.16500
C3998       C  0.60521078  0.09871731  0.08273154     0.02400
C3999       C  0.61304213  0.05196984  0.06368243     0.12400
C4000       C  0.61014392  0.04355380  0.10310558     0.63000
H4001       H  0.60138183  0.07425491  0.12169611     0.12400
C4002       C  0.60443398  0.11805855  0.07588386     0.55100
H4003       H  0.61144293  0.08708865  0.05661780     0.08200
C4004       C  0.59851645  0.04478028  0.05345403    -0.05600
C4005       C  0.60202649  0.03037269  0.04163559    -0.06400
C4006       C  0.61951251  0.02333305  0.03959884    -0.15900
C4007       C  0.63414221  0.03089180  0.04942548    -0.01500
C4008       C  0.63056715  0.04514193  0.06141526    -0.09100
C4009       C  0.57949036  0.05242006  0.05486136     0.65200
H4010       H  0.59115406  0.02448977  0.03373107     0.10700
C4011       C  0.65362736  0.02459139  0.04790811     0.63600
H4012       H  0.64158217  0.05100978  0.06916005     0.08000
F4013       F  0.60793857  0.11914042  0.05751351    -0.19500
F4014       F  0.61722442  0.12835389  0.08489955    -0.15700
F4015       F  0.58746190  0.12524214  0.07899449    -0.19200
F4016       F  0.62748112  0.03738671  0.09985181    -0.22600
F4017       F  0.59785939  0.03210400  0.09482866    -0.24000
F4018       F  0.60719734  0.04284293  0.12159405    -0.18000
F4019       F  0.66453985  0.03922909  0.04365506    -0.20500
F4020       F  0.65623444  0.01151528  0.03482576    -0.21700
F4021       F  0.65908740  0.01757647  0.06438318    -0.18900
F4022       F  0.56720723  0.04255710  0.04468546    -0.18900
F4023       F  0.57935856  0.07006026  0.04860144    -0.22800
F4024       F  0.57373233  0.05215117  0.07265326    -0.24400
C4025       C  0.89463905  0.57680971  0.91799944    -0.11200
C4026       C  0.91296287  0.58008107  0.91417325     0.11400
C4027       C  0.91917975  0.57930242  0.89604038    -0.03000
C4028       C  0.90674190  0.57500859  0.88228994    -0.05700
C4029       C  0.88859666  0.57128051  0.88622031    -0.16500
C4030       C  0.88223522  0.57250877  0.90419800     0.02400
C4031       C  0.92560224  0.58247248  0.92960815     0.12400
C4032       C  0.93892233  0.58246520  0.89126220     0.63000
H4033       H  0.91118160  0.57400909  0.86835950     0.12400
C4034       C  0.86245395  0.56923886  0.90863612     0.55100
H4035       H  0.89023527  0.57723793  0.93196758     0.08200
C4036       C  0.92773752  0.59912687  0.93884683    -0.05600
C4037       C  0.94015159  0.60004098  0.95333286    -0.06400
C4038       C  0.95013644  0.58482044  0.95881906    -0.15900
C4039       C  0.94755529  0.56805702  0.94980367    -0.01500
C4040       C  0.93529728  0.56725934  0.93534260    -0.09100
C4041       C  0.91696205  0.61575429  0.93341568     0.65200
H4042       H  0.94229877  0.61267977  0.96043476     0.10700
C4043       C  0.95723055  0.55056468  0.95461653     0.63600
H4044       H  0.93324912  0.55450874  0.92835651     0.08000
F4045       F  0.85886326  0.57191282  0.92682133    -0.19500
F4046       F  0.85777011  0.55164125  0.90428139    -0.15700
F4047       F  0.85178516  0.58104237  0.89876825    -0.19200
F4048       F  0.94938420  0.56865007  0.89827523    -0.22600
F4049       F  0.94477801  0.59877073  0.89832001    -0.24000
F4050       F  0.94157779  0.58297012  0.87271850    -0.18000
F4051       F  0.94449324  0.53727865  0.95817694    -0.20500
F4052       F  0.96837080  0.55192210  0.96956242    -0.21700
F4053       F  0.96762924  0.54517339  0.94004017    -0.18900
F4054       F  0.92188271  0.63080685  0.94343313    -0.18900
F4055       F  0.89872752  0.61260080  0.93617219    -0.22800
F4056       F  0.91979686  0.61968497  0.91534579    -0.24400
C4057       C  0.93962202  0.56114602  0.07639076    -0.11200
C4058       C  0.92858571  0.57522207  0.08255576     0.11400
C4059       C  0.93025421  0.59275276  0.07497182    -0.03000
C4060       C  0.94246714  0.59539937  0.06060433    -0.05700
C4061       C  0.95310153  0.58114652  0.05404739    -0.16500
C4062       C  0.95194499  0.56379067  0.06217549     0.02400
C4063       C  0.91470947  0.57091488  0.09635179     0.12400
C4064       C  0.91912551  0.60847262  0.08205913     0.63000
H4065       H  0.94388217  0.60860559  0.05437733     0.12400
C4066       C  0.96360127  0.54812902  0.05578963     0.55100
H4067       H  0.93827689  0.54796728  0.08269764     0.08200
C4068       C  0.89780386  0.56337800  0.09137608    -0.05600
C4069       C  0.88493786  0.56009216  0.10496565    -0.06400
C4070       C  0.88876453  0.56357241  0.12321193    -0.15900
C4071       C  0.90593529  0.57033997  0.12829350    -0.01500
C4072       C  0.91868832  0.57407952  0.11464709    -0.09100
C4073       C  0.89368783  0.55820518  0.07189783     0.65200
H4074       H  0.87185732  0.55442057  0.10150412     0.10700
C4075       C  0.91085518  0.57292064  0.14805624     0.63600
H4076       H  0.93191412  0.57938996  0.11812162     0.08000
F4077       F  0.95914759  0.53210988  0.06446975    -0.19500
F4078       F  0.98161379  0.55177440  0.05930774    -0.15700
F4079       F  0.96130585  0.54555921  0.03740181    -0.19200
F4080       F  0.92289912  0.61119078  0.10018136    -0.22600
F4081       F  0.90088180  0.60477810  0.08009052    -0.24000
F4082       F  0.92290710  0.62439533  0.07290611    -0.18000
F4083       F  0.92862231  0.57851340  0.15016958    -0.20500
F4084       F  0.90869351  0.55672843  0.15725074    -0.21700
F4085       F  0.89973807  0.58584520  0.15569514    -0.18900
F4086       F  0.87595486  0.55251965  0.06976810    -0.18900
F4087       F  0.90490536  0.54418946  0.06670630    -0.22800
F4088       F  0.89648222  0.57281477  0.06052048    -0.24400
C4089       C  0.07875539  0.57675895  0.89855328    -0.11200
C4090       C  0.08228987  0.56948549  0.91569822     0.11400
C4091       C  0.09758244  0.55833268  0.91846456    -0.03000
C4092       C  0.10930191  0.55530566  0.90383045    -0.05700
C4093       C  0.10595255  0.56283701  0.88670110    -0.16500
C4094       C  0.09035295  0.57359913  0.88386512     0.02400
C4095       C  0.06902096  0.57299326  0.93019254     0.12400
C4096       C  0.10121349  0.54932171  0.93661221     0.63000
H4097       H  0.12114774  0.54687158  0.90560085     0.12400
C4098       C  0.08562773  0.58128000  0.86538020     0.55100
H4099       H  0.06672363  0.58493137  0.89679639     0.08200
C4100       C  0.06925906  0.58915031  0.94044790    -0.05600
C4101       C  0.05583835  0.59164390  0.95367015    -0.06400
C4102       C  0.04243670  0.57851611  0.95676795    -0.15900
C4103       C  0.04228181  0.56232639  0.94651046    -0.01500
C4104       C  0.05552991  0.55998877  0.93313319    -0.09100
C4105       C  0.08351544  0.60367369  0.93731135     0.65200
H4106       H  0.05569350  0.60383120  0.96179955     0.10700
C4107       C  0.02855996  0.54738024  0.95001433     0.63600
H4108       H  0.05559840  0.54787929  0.92488286     0.08000
F4109       F  0.09762176  0.59497797  0.86097525    -0.19500
F4110       F  0.06831290  0.58839611  0.86502770    -0.15700
F4111       F  0.08648110  0.56781247  0.85241342    -0.19200
F4112       F  0.08755945  0.53708494  0.94041912    -0.22600
F4113       F  0.10188137  0.56213168  0.95020417    -0.24000
F4114       F  0.11748403  0.54006089  0.93667165    -0.18000
F4115       F  0.01126983  0.55354338  0.94653280    -0.20500
F4116       F  0.02967097  0.54184405  0.96786020    -0.21700
F4117       F  0.03156534  0.53243841  0.93913570    -0.18900
F4118       F  0.08184201  0.61783042  0.94944668    -0.18900
F4119       F  0.08178193  0.61060884  0.92002183    -0.22800
F4120       F  0.10064395  0.59645395  0.93927821    -0.24400
C4121       C  0.07942732  0.55886419  0.10732090    -0.11200
C4122       C  0.08488325  0.55948392  0.08915704     0.11400
C4123       C  0.10308672  0.55582029  0.08444239    -0.03000
C4124       C  0.11524107  0.55116388  0.09829340    -0.05700
C4125       C  0.10971856  0.55056960  0.11639498    -0.16500
C4126       C  0.09165037  0.55439969  0.12113850     0.02400
C4127       C  0.07124948  0.56487543  0.07559047     0.12400
C4128       C  0.10971451  0.55717091  0.06502336     0.63000
H4129       H  0.12925040  0.54820980  0.09517437     0.12400
C4130       C  0.08550466  0.55394164  0.14072063     0.55100
H4131       H  0.06550782  0.56208656  0.11056685     0.08200
C4132       C  0.05860017  0.55235214  0.06849380    -0.05600
C4133       C  0.04552403  0.55867700  0.05626357    -0.06400
C4134       C  0.04479240  0.57693977  0.05113131    -0.15900
C4135       C  0.05718745  0.58953443  0.05850371    -0.01500
C4136       C  0.07025598  0.58322859  0.07079508    -0.09100
C4137       C  0.05891571  0.53245756  0.07379696     0.65200
H4138       H  0.03581272  0.54938124  0.05038115     0.10700
C4139       C  0.05656808  0.60942957  0.05339322     0.63600
H4140       H  0.07984399  0.59256204  0.07681527     0.08000
F4141       F  0.06706731  0.55681325  0.14229637    -0.19500
F4142       F  0.09443204  0.56728275  0.15036070    -0.15700
F4143       F  0.08940364  0.53726784  0.14828463    -0.19200
F4144       F  0.10765452  0.57469390  0.05880428    -0.22600
F4145       F  0.09993196  0.54562127  0.05404304    -0.24000
F4146       F  0.12782601  0.55262506  0.06353435    -0.18000
F4147       F  0.06989400  0.61930805  0.06214167    -0.20500
F4148       F  0.03999564  0.61666353  0.05808351    -0.21700
F4149       F  0.05906726  0.61135766  0.03495787    -0.18900
F4150       F  0.04548528  0.52269018  0.06508818    -0.18900
F4151       F  0.05627490  0.53067600  0.09222119    -0.22800
F4152       F  0.07538490  0.52490032  0.06928779    -0.24400
C4153       C  0.42908773  0.41461264  0.89654672    -0.11200
C4154       C  0.42034287  0.40187218  0.88550697     0.11400
C4155       C  0.42344051  0.40212542  0.86658965    -0.03000
C4156       C  0.43618985  0.41443879  0.85952685    -0.05700
C4157       C  0.44578884  0.42640865  0.87072853    -0.16500
C4158       C  0.44185442  0.42691603  0.88952321     0.02400
C4159       C  0.40846248  0.38801486  0.89412807     0.12400
C4160       C  0.41363292  0.38915067  0.85399606     0.63000
H4161       H  0.43932077  0.41435170  0.84520986     0.12400
C4162       C  0.45079431  0.43976804  0.90285325     0.55100
H4163       H  0.42624551  0.41462119  0.91094164     0.08200
C4164       C  0.41565968  0.37219072  0.90226929    -0.05600
C4165       C  0.40364017  0.35885017  0.90869221    -0.06400
C4166       C  0.38485969  0.36080829  0.90703307    -0.15900
C4167       C  0.37762294  0.37707148  0.89990269    -0.01500
C4168       C  0.38964548  0.39053747  0.89366815    -0.09100
C4169       C  0.43593505  0.36912786  0.90362495     0.65200
H4170       H  0.40883077  0.34638804  0.91440405     0.10700
C4171       C  0.35733575  0.38029070  0.89924412     0.63600
H4172       H  0.38445832  0.40297462  0.88790074     0.08000
F4173       F  0.46207899  0.45231196  0.89477173    -0.19500
F4174       F  0.46085234  0.42985326  0.91513275    -0.15700
F4175       F  0.43755412  0.44917116  0.91212758    -0.19200
F4176       F  0.39519713  0.39213309  0.85487238    -0.22600
F4177       F  0.41719708  0.37146856  0.85897756    -0.24000
F4178       F  0.41895710  0.39138859  0.83617535    -0.18000
F4179       F  0.35323857  0.39756978  0.89325706    -0.20500
F4180       F  0.35009983  0.37817100  0.91637952    -0.21700
F4181       F  0.34920635  0.36810217  0.88760962    -0.18900
F4182       F  0.43997074  0.35296610  0.91222321    -0.18900
F4183       F  0.44390062  0.38293784  0.91341211    -0.22800
F4184       F  0.44340996  0.36867123  0.88649371    -0.24400
C4185       C  0.56149675  0.40968279  0.89479603    -0.11200
C4186       C  0.56908336  0.39912054  0.88098628     0.11400
C4187       C  0.56187248  0.40023274  0.86318856    -0.03000
C4188       C  0.54821660  0.41300911  0.85965048    -0.05700
C4189       C  0.54096715  0.42382480  0.87342169    -0.16500
C4190       C  0.54719801  0.42173618  0.89140901     0.02400
C4191       C  0.58378742  0.38651530  0.88632362     0.12400
C4192       C  0.56756314  0.38817179  0.84757516     0.63000
H4193       H  0.54291337  0.41436730  0.84602950     0.12400
C4194       C  0.53831761  0.43172062  0.90700212     0.55100
H4195       H  0.56675483  0.40816438  0.90840049     0.08200
C4196       C  0.60232219  0.39093647  0.88415942    -0.05600
C4197       C  0.61544872  0.37877245  0.89070641    -0.06400
C4198       C  0.61054512  0.36287063  0.89989487    -0.15900
C4199       C  0.59199955  0.35847604  0.90208162    -0.01500
C4200       C  0.57889206  0.37042614  0.89515611    -0.09100
C4201       C  0.60813577  0.40866345  0.87550666     0.65200
H4202       H  0.62971133  0.38180830  0.88913426     0.10700
C4203       C  0.58608576  0.34108296  0.91132100     0.63600
H4204       H  0.56462334  0.36746732  0.89680145     0.08000
F4205       F  0.53970683  0.45020551  0.90447782    -0.19500
F4206       F  0.54626944  0.42750448  0.92343522    -0.15700
F4207       F  0.52023352  0.42697090  0.90797318    -0.19200
F4208       F  0.55258177  0.37885567  0.84125091    -0.22600
F4209       F  0.58057688  0.37561196  0.85226868    -0.24000
F4210       F  0.57431788  0.39878124  0.83368898    -0.18000
F4211       F  0.59160250  0.34114972  0.92919226    -0.20500
F4212       F  0.59367612  0.32641435  0.90256184    -0.21700
F4213       F  0.56745959  0.33898565  0.91104954    -0.18900
F4214       F  0.62678312  0.41050659  0.87515227    -0.18900
F4215       F  0.60109342  0.42300695  0.88520362    -0.22800
F4216       F  0.60191220  0.40953945  0.85790375    -0.24400
C4217       C  0.38554527  0.53607386  0.89346272    -0.11200
C4218       C  0.40230759  0.54229173  0.88706526     0.11400
C4219       C  0.40621932  0.56109129  0.88714801    -0.03000
C4220       C  0.39327017  0.57308868  0.89420641    -0.05700
C4221       C  0.37674375  0.56681585  0.90106849    -0.16500
C4222       C  0.37261789  0.54811118  0.90055306     0.02400
C4223       C  0.41562483  0.52893022  0.88022386     0.12400
C4224       C  0.42403037  0.56839169  0.87986297     0.63000
H4225       H  0.39599459  0.58749782  0.89458463     0.12400
C4226       C  0.35449930  0.54106327  0.90717954     0.55100
H4227       H  0.38273605  0.52169007  0.89293017     0.08200
C4228       C  0.42775976  0.51983163  0.89193622    -0.05600
C4229       C  0.44192807  0.50970129  0.88430682    -0.06400
C4230       C  0.44372191  0.50788291  0.86549535    -0.15900
C4231       C  0.43054906  0.51557799  0.85387956    -0.01500
C4232       C  0.41673544  0.52617605  0.86150110    -0.09100
C4233       C  0.42554894  0.52064979  0.91233360     0.65200
H4234       H  0.45184109  0.50320258  0.89293192     0.10700
C4235       C  0.43130814  0.51287601  0.83353017     0.63600
H4236       H  0.40690952  0.53281297  0.85288296     0.08000
F4237       F  0.35251085  0.54483472  0.92538622    -0.19500
F4238       F  0.35289831  0.52253304  0.90488476    -0.15700
F4239       F  0.34069487  0.54932808  0.89761631    -0.19200
F4240       F  0.42545860  0.56452767  0.86162524    -0.22600
F4241       F  0.43835870  0.56052460  0.88896540    -0.24000
F4242       F  0.42538353  0.58696930  0.88192366    -0.18000
F4243       F  0.42888540  0.49475184  0.82954204    -0.20500
F4244       F  0.44789043  0.51855908  0.82693478    -0.21700
F4245       F  0.41792798  0.52252526  0.82466118    -0.18900
F4246       F  0.43932286  0.51159353  0.92123431    -0.18900
F4247       F  0.40931531  0.51262485  0.91710800    -0.22800
F4248       F  0.42559592  0.53842321  0.91816165    -0.24400
C4249       C  0.55995856  0.54141949  0.86627018    -0.11200
C4250       C  0.56521237  0.54174554  0.88452696     0.11400
C4251       C  0.55609868  0.53054006  0.89717729    -0.03000
C4252       C  0.54305226  0.51820235  0.89078027    -0.05700
C4253       C  0.53846789  0.51722452  0.87238886    -0.16500
C4254       C  0.54663698  0.52930560  0.85993407     0.02400
C4255       C  0.58066746  0.55358556  0.88985752     0.12400
C4256       C  0.56005772  0.53164748  0.91731353     0.63000
H4257       H  0.53627359  0.50911151  0.90009129     0.12400
C4258       C  0.54146245  0.52919612  0.84007076     0.55100
H4259       H  0.56669398  0.55053316  0.85695175     0.08200
C4260       C  0.59887052  0.54848844  0.88663956    -0.05600
C4261       C  0.61287660  0.56031119  0.89198451    -0.06400
C4262       C  0.60923547  0.57661389  0.90095455    -0.15900
C4263       C  0.59101615  0.58162557  0.90431562    -0.01500
C4264       C  0.57700134  0.57017645  0.89825028    -0.09100
C4265       C  0.60344788  0.53047952  0.87788869     0.65200
H4266       H  0.62687279  0.55673820  0.88954400     0.10700
C4267       C  0.58635660  0.59890391  0.91432908     0.63600
H4268       H  0.56299331  0.57390242  0.90033203     0.08000
F4269       F  0.55133603  0.54174502  0.83021883    -0.19500
F4270       F  0.52333217  0.53337510  0.83821988    -0.15700
F4271       F  0.54460357  0.51225637  0.83280766    -0.19200
F4272       F  0.55567494  0.54867771  0.92364729    -0.22600
F4273       F  0.57819461  0.52840412  0.92051262    -0.24000
F4274       F  0.55007091  0.51913084  0.92708992    -0.18000
F4275       F  0.56788790  0.60201142  0.91467112    -0.20500
F4276       F  0.59459675  0.61356530  0.90606332    -0.21700
F4277       F  0.59224113  0.59759302  0.93200581    -0.18900
F4278       F  0.62194797  0.52777697  0.87683309    -0.18900
F4279       F  0.59652680  0.52986918  0.86052541    -0.22800
F4280       F  0.59609094  0.51647405  0.88792830    -0.24400
C4281       C  0.45422819  0.38761959  0.12444718    -0.11200
C4282       C  0.44207631  0.38914488  0.10993440     0.11400
C4283       C  0.44236245  0.40474770  0.09880172    -0.03000
C4284       C  0.45523343  0.41821439  0.10237325    -0.05700
C4285       C  0.46739130  0.41674891  0.11686843    -0.16500
C4286       C  0.46690985  0.40129782  0.12826153     0.02400
C4287       C  0.42870544  0.37453919  0.10687422     0.12400
C4288       C  0.42906794  0.40723037  0.08328844     0.63000
H4289       H  0.45593098  0.43015578  0.09386833     0.12400
C4290       C  0.47937418  0.39845223  0.14437864     0.55100
H4291       H  0.45365929  0.37568974  0.13299331     0.08200
C4292       C  0.43289409  0.35893115  0.09665483    -0.05600
C4293       C  0.41872754  0.34715762  0.09178932    -0.06400
C4294       C  0.40091372  0.35019106  0.09757713    -0.15900
C4295       C  0.39705156  0.36505430  0.10904631    -0.01500
C4296       C  0.41112149  0.37709768  0.11341335    -0.09100
C4297       C  0.45219458  0.35481871  0.09097405     0.65200
H4298       H  0.42143351  0.33543981  0.08342951     0.10700
C4299       C  0.37814680  0.36845669  0.11630534     0.63600
H4300       H  0.40846297  0.38891426  0.12165149     0.08000
F4301       F  0.49081888  0.38411140  0.14079369    -0.19500
F4302       F  0.46914231  0.39432536  0.15949987    -0.15700
F4303       F  0.48979143  0.41344823  0.14850327    -0.19200
F4304       F  0.41166244  0.40841078  0.09000599    -0.22600
F4305       F  0.43011093  0.39272888  0.07153806    -0.24000
F4306       F  0.43256183  0.42285735  0.07351519    -0.18000
F4307       F  0.37352026  0.35489644  0.12836478    -0.20500
F4308       F  0.36579751  0.36873667  0.10223270    -0.21700
F4309       F  0.37701455  0.38484472  0.12530870    -0.18900
F4310       F  0.45328556  0.33890304  0.08117012    -0.18900
F4311       F  0.46296399  0.35296766  0.10617230    -0.22800
F4312       F  0.45890922  0.36872076  0.08037452    -0.24400
C4313       C  0.43239976  0.52072406  0.10079124    -0.11200
C4314       C  0.43018180  0.53459962  0.11347352     0.11400
C4315       C  0.44080112  0.53470555  0.12941426    -0.03000
C4316       C  0.45436836  0.52146712  0.13148679    -0.05700
C4317       C  0.45746582  0.50830243  0.11813189    -0.16500
C4318       C  0.44608157  0.50765952  0.10263940     0.02400
C4319       C  0.41691850  0.54909203  0.10925947     0.12400
C4320       C  0.43781661  0.54881696  0.14401812     0.63000
H4321       H  0.46307302  0.52159678  0.14328152     0.12400
C4322       C  0.44875208  0.49376025  0.08771123     0.55100
H4323       H  0.42367696  0.52068354  0.08900383     0.08200
C4324       C  0.42129075  0.56358921  0.09744863    -0.05600
C4325       C  0.40792767  0.57654060  0.09355476    -0.06400
C4326       C  0.39044397  0.57525652  0.10081435    -0.15900
C4327       C  0.38586380  0.56040581  0.11206967    -0.01500
C4328       C  0.39931509  0.54756306  0.11620534    -0.09100
C4329       C  0.43990495  0.56527091  0.08882521     0.65200
H4330       H  0.41093497  0.58772192  0.08453784     0.10700
C4331       C  0.36673566  0.55777562  0.11911558     0.63600
H4332       H  0.39616239  0.53606798  0.12476080     0.08000
F4333       F  0.46634067  0.49453549  0.08138919    -0.19500
F4334       F  0.43727425  0.49677707  0.07320251    -0.15700
F4335       F  0.44522639  0.47657089  0.09417874    -0.19200
F4336       F  0.42035984  0.54741335  0.15059586    -0.22600
F4337       F  0.44035753  0.56598514  0.13699022    -0.24000
F4338       F  0.44962870  0.54659853  0.15839219    -0.18000
F4339       F  0.36450157  0.54098428  0.12715430    -0.20500
F4340       F  0.35442884  0.55902888  0.10504353    -0.21700
F4341       F  0.36293612  0.57091377  0.13185231    -0.18900
F4342       F  0.44106436  0.58015517  0.07747430    -0.18900
F4343       F  0.44363226  0.55007010  0.07862113    -0.22800
F4344       F  0.45294404  0.56708081  0.10211468    -0.24400
C4345       C  0.58214036  0.40268138  0.12154763    -0.11200
C4346       C  0.58777629  0.39749608  0.10421315     0.11400
C4347       C  0.57992819  0.40569944  0.08875318    -0.03000
C4348       C  0.56700122  0.41944385  0.09121631    -0.05700
C4349       C  0.56104975  0.42435160  0.10854588    -0.16500
C4350       C  0.56857502  0.41581056  0.12397964     0.02400
C4351       C  0.60061477  0.38219658  0.10244823     0.12400
C4352       C  0.58443060  0.39916062  0.06978999     0.63000
H4353       H  0.56072708  0.42585841  0.07962237     0.12400
C4354       C  0.56182546  0.42021203  0.14284905     0.55100
H4355       H  0.58801382  0.39586580  0.13312480     0.08200
C4356       C  0.61960618  0.38474239  0.10187658    -0.05600
C4357       C  0.63060954  0.36987172  0.09743815    -0.06400
C4358       C  0.62312959  0.35274852  0.09402202    -0.15900
C4359       C  0.60434861  0.34989761  0.09622754    -0.01500
C4360       C  0.59332042  0.36479313  0.10035200    -0.09100
C4361       C  0.62812984  0.40299092  0.10600609     0.65200
H4362       H  0.64513171  0.37154503  0.09627182     0.10700
C4363       C  0.59612034  0.33117784  0.09445363     0.63600
H4364       H  0.57879555  0.36310786  0.10145025     0.08000
F4365       F  0.56404342  0.43848046  0.14625050    -0.19500
F4366       F  0.57110367  0.41065186  0.15602778    -0.15700
F4367       F  0.54367478  0.41581748  0.14421851    -0.19200
F4368       F  0.57829350  0.38159644  0.06764055    -0.22600
F4369       F  0.60291651  0.39956882  0.06697726    -0.24000
F4370       F  0.57637194  0.40978235  0.05663337    -0.18000
F4371       F  0.60446453  0.31950272  0.10648564    -0.20500
F4372       F  0.59849897  0.32487622  0.07704784    -0.21700
F4373       F  0.57775520  0.33119509  0.09814834    -0.18900
F4374       F  0.64681620  0.40245807  0.10465153    -0.18900
F4375       F  0.62374789  0.40808204  0.12345229    -0.22800
F4376       F  0.62182921  0.41594759  0.09407481    -0.24400
C4377       C  0.56424212  0.54240787  0.08847905    -0.11200
C4378       C  0.57471212  0.54832441  0.10317033     0.11400
C4379       C  0.57342490  0.53930916  0.12005399    -0.03000
C4380       C  0.56123508  0.52478468  0.12169804    -0.05700
C4381       C  0.55118417  0.51858183  0.10684509    -0.16500
C4382       C  0.55305607  0.52708780  0.08977169     0.02400
C4383       C  0.58726245  0.56369027  0.10008912     0.12400
C4384       C  0.58506251  0.54471883  0.13611663     0.63000
H4385       H  0.55962690  0.51788484  0.13454185     0.12400
C4386       C  0.54395487  0.51959418  0.07289027     0.55100
H4387       H  0.56533407  0.54965519  0.07577673     0.08200
C4388       C  0.60302901  0.56175718  0.08937214    -0.05600
C4389       C  0.61347471  0.57719530  0.08568240    -0.06400
C4390       C  0.60887820  0.59421886  0.09264480    -0.15900
C4391       C  0.59360071  0.59604501  0.10400111    -0.01500
C4392       C  0.58275979  0.58069377  0.10723954    -0.09100
C4393       C  0.60876423  0.54355591  0.08170241     0.65200
H4394       H  0.62529322  0.57614605  0.07708011     0.10700
C4395       C  0.58860179  0.61415429  0.11226235     0.63600
H4396       H  0.57053930  0.58186293  0.11522432     0.08000
F4397       F  0.54877329  0.52923690  0.05754940    -0.19500
F4398       F  0.52536383  0.52034734  0.07447068    -0.15700
F4399       F  0.54909624  0.50178498  0.07040548    -0.19200
F4400       F  0.58031134  0.56180769  0.14197253    -0.22600
F4401       F  0.60311873  0.54472590  0.13121871    -0.24000
F4402       F  0.58298883  0.53285869  0.15050133    -0.18000
F4403       F  0.57234805  0.61330517  0.12152594    -0.20500
F4404       F  0.58699334  0.62710978  0.09882568    -0.21700
F4405       F  0.60189724  0.61942368  0.12434851    -0.18900
F4406       F  0.62585454  0.54435850  0.07406907    -0.18900
F4407       F  0.59678785  0.53812165  0.06840318    -0.22800
F4408       F  0.60912774  0.53067474  0.09528950    -0.24400
C4409       C  0.91062432  0.37677410  0.40377594    -0.11200
C4410       C  0.90130072  0.37178550  0.41948896     0.11400
C4411       C  0.89595608  0.35357712  0.42217220    -0.03000
C4412       C  0.90093135  0.34065912  0.40915103    -0.05700
C4413       C  0.91109935  0.34550881  0.39387391    -0.16500
C4414       C  0.91592515  0.36386725  0.39094412     0.02400
C4415       C  0.89762227  0.38607348  0.43294710     0.12400
C4416       C  0.88504985  0.34789456  0.43864344     0.63000
H4417       H  0.89718456  0.32658415  0.41093151     0.12400
C4418       C  0.92643833  0.36990614  0.37432269     0.55100
H4419       H  0.91416322  0.39089761  0.40193893     0.08200
C4420       C  0.91126315  0.39232704  0.44490132    -0.05600
C4421       C  0.90705234  0.40641304  0.45686075    -0.06400
C4422       C  0.88988595  0.41439135  0.45695458    -0.15900
C4423       C  0.87628239  0.40824600  0.44499946    -0.01500
C4424       C  0.88044695  0.39411599  0.43301868    -0.09100
C4425       C  0.93016338  0.38423630  0.44498367     0.65200
H4426       H  0.91717457  0.41151032  0.46617468     0.10700
C4427       C  0.85755208  0.41661441  0.44502137     0.63600
H4428       H  0.87039676  0.38931205  0.42348004     0.08000
F4429       F  0.94390835  0.36329859  0.37510841    -0.19500
F4430       F  0.92747457  0.38858707  0.37307959    -0.15700
F4431       F  0.91803440  0.36356389  0.35884103    -0.19200
F4432       F  0.86829734  0.35616852  0.43821678    -0.22600
F4433       F  0.89398186  0.35289827  0.45430945    -0.24000
F4434       F  0.88232831  0.32935239  0.43919291    -0.18000
F4435       F  0.85871751  0.43472658  0.44042532    -0.20500
F4436       F  0.84997429  0.41505248  0.46205783    -0.21700
F4437       F  0.84611505  0.40820249  0.43278396    -0.18900
F4438       F  0.94096494  0.39179763  0.45831187    -0.18900
F4439       F  0.93848329  0.38727988  0.42851641    -0.22800
F4440       F  0.92917108  0.36580776  0.44809371    -0.24400
C4441       C  0.90487341  0.38360911  0.60654831    -0.11200
C4442       C  0.89766102  0.37815953  0.58988712     0.11400
C4443       C  0.89480714  0.35957562  0.58619725    -0.03000
C4444       C  0.89897766  0.34691432  0.59972800    -0.05700
C4445       C  0.90660530  0.35237017  0.61618389    -0.16500
C4446       C  0.90956357  0.37089999  0.61983800     0.02400
C4447       C  0.89456565  0.39220653  0.57607541     0.12400
C4448       C  0.88836438  0.35312011  0.56777723     0.63000
H4449       H  0.89713682  0.33257028  0.59726551     0.12400
C4450       C  0.91793503  0.37710579  0.63752748     0.55100
H4451       H  0.90730801  0.39789707  0.60880265     0.08200
C4452       C  0.87870133  0.40285463  0.57575752    -0.05600
C4453       C  0.87674677  0.41576113  0.56192402    -0.06400
C4454       C  0.89041453  0.41857872  0.54904420    -0.15900
C4455       C  0.90672813  0.40851878  0.55003502    -0.01500
C4456       C  0.90836584  0.39531834  0.56351875    -0.09100
C4457       C  0.86412865  0.40070360  0.59008288     0.65200
H4458       H  0.86458918  0.42388775  0.56108765     0.10700
C4459       C  0.92300724  0.41121240  0.53775344     0.63600
H4460       H  0.92069300  0.38740976  0.56440065     0.08000
F4461       F  0.91787175  0.39578513  0.63908175    -0.19500
F4462       F  0.93566464  0.37123915  0.63849232    -0.15700
F4463       F  0.90830943  0.37001205  0.65194024    -0.19200
F4464       F  0.90164953  0.35646186  0.55503341    -0.22600
F4465       F  0.87274485  0.36210719  0.56280070    -0.24000
F4466       F  0.88469011  0.33473116  0.56774874    -0.18000
F4467       F  0.93780655  0.41593662  0.54821987    -0.20500
F4468       F  0.92069764  0.42453402  0.52484913    -0.21700
F4469       F  0.92674974  0.39513249  0.52895487    -0.18900
F4470       F  0.84961606  0.41211833  0.58699166    -0.18900
F4471       F  0.87120906  0.40477196  0.60691828    -0.22800
F4472       F  0.85776052  0.38309582  0.59022599    -0.24400
C4473       C  0.87711663  0.52624545  0.42713710    -0.11200
C4474       C  0.89379061  0.53518277  0.42576305     0.11400
C4475       C  0.90804252  0.53103932  0.43788904    -0.03000
C4476       C  0.90511065  0.51756773  0.45097132    -0.05700
C4477       C  0.88843164  0.50859387  0.45229977    -0.16500
C4478       C  0.87414944  0.51292029  0.44034457     0.02400
C4479       C  0.89571812  0.54924659  0.41175435     0.12400
C4480       C  0.92602812  0.54108560  0.43729005     0.63000
H4481       H  0.91571124  0.51404060  0.46046807     0.12400
C4482       C  0.85582389  0.50374820  0.44185819     0.55100
H4483       H  0.86641556  0.52992914  0.41781539     0.08200
C4484       C  0.90209131  0.54510680  0.39423381    -0.05600
C4485       C  0.90520675  0.55942396  0.38216858    -0.06400
C4486       C  0.90077441  0.57729294  0.38669583    -0.15900
C4487       C  0.89260662  0.58116561  0.40355688    -0.01500
C4488       C  0.89060803  0.56698433  0.41609048    -0.09100
C4489       C  0.90479784  0.52567019  0.38810489     0.65200
H4490       H  0.91086759  0.55676771  0.36891767     0.10700
C4491       C  0.88631146  0.60010871  0.40833854     0.63600
H4492       H  0.88507323  0.56957810  0.42940442     0.08000
F4493       F  0.85769859  0.48526036  0.43973599    -0.19500
F4494       F  0.84386501  0.50988400  0.42880296    -0.15700
F4495       F  0.84843451  0.50724779  0.45867393    -0.19200
F4496       F  0.92322764  0.55927182  0.44061167    -0.22600
F4497       F  0.93401046  0.53920627  0.42050399    -0.24000
F4498       F  0.93805119  0.53460497  0.45012736    -0.18000
F4499       F  0.87293902  0.60547788  0.39639426    -0.20500
F4500       F  0.90068023  0.61209082  0.40733739    -0.21700
F4501       F  0.87921093  0.60090313  0.42565541    -0.18900
F4502       F  0.91146393  0.52479264  0.37062636    -0.18900
F4503       F  0.88836637  0.51669539  0.38851625    -0.22800
F4504       F  0.91680543  0.51678431  0.39933843    -0.24400
C4505       C  0.90678838  0.53789149  0.55696375    -0.11200
C4506       C  0.89270976  0.54201003  0.56889370     0.11400
C4507       C  0.87648383  0.53181181  0.56853407    -0.03000
C4508       C  0.87511714  0.51736525  0.55626201    -0.05700
C4509       C  0.88937744  0.51305988  0.54453077    -0.16500
C4510       C  0.90560448  0.52334964  0.54491739     0.02400
C4511       C  0.89565586  0.55702076  0.58172251     0.12400
C4512       C  0.86075093  0.53620978  0.58097278     0.63000
H4513       H  0.86283557  0.50936051  0.55557607     0.12400
C4514       C  0.92218496  0.51966961  0.53334419     0.55100
H4515       H  0.91903826  0.54601027  0.55729686     0.08200
C4516       C  0.90668295  0.55486692  0.59721665    -0.05600
C4517       C  0.90969480  0.56990629  0.60829935    -0.06400
C4518       C  0.90223190  0.58687884  0.60433805    -0.15900
C4519       C  0.89079818  0.58896208  0.58906934    -0.01500
C4520       C  0.88797434  0.57391116  0.57776810    -0.09100
C4521       C  0.91545072  0.53687458  0.60195532     0.65200
H4522       H  0.91798531  0.56851220  0.62028232     0.10700
C4523       C  0.88183252  0.60688414  0.58456344     0.63600
H4524       H  0.87977847  0.57517302  0.56567727     0.08000
F4525       F  0.93685198  0.51648723  0.54454503    -0.19500
F4526       F  0.92582910  0.53475121  0.52283352    -0.15700
F4527       F  0.92034677  0.50494455  0.52200541    -0.19200
F4528       F  0.85414184  0.55324251  0.57698835    -0.22600
F4529       F  0.86639825  0.53582069  0.59880763    -0.24000
F4530       F  0.84668625  0.52394359  0.57906421    -0.18000
F4531       F  0.87250451  0.60614310  0.56831232    -0.20500
F4532       F  0.89477012  0.62037064  0.58322370    -0.21700
F4533       F  0.86958911  0.61131448  0.59796891    -0.18900
F4534       F  0.92402005  0.53744799  0.61862166    -0.18900
F4535       F  0.92826565  0.53251568  0.58908292    -0.22800
F4536       F  0.90249450  0.52336776  0.60260970    -0.24400
C4537       C  0.40100534  0.85383124  0.39594272    -0.11200
C4538       C  0.40024444  0.85991502  0.41387912     0.11400
C4539       C  0.38481371  0.86939843  0.42006962    -0.03000
C4540       C  0.37048371  0.87241698  0.40792267    -0.05700
C4541       C  0.37129571  0.86653312  0.38989696    -0.16500
C4542       C  0.38675622  0.85707576  0.38371373     0.02400
C4543       C  0.41614368  0.85683198  0.42572947     0.12400
C4544       C  0.38378356  0.87686242  0.43920394     0.63000
H4545       H  0.35872353  0.88000779  0.41222570     0.12400
C4546       C  0.38855586  0.85119017  0.36413555     0.55100
H4547       H  0.41307632  0.84682541  0.39152555     0.08200
C4548       C  0.41861631  0.84041339  0.43529025    -0.05600
C4549       C  0.43320548  0.83906117  0.44745825    -0.06400
C4550       C  0.44535498  0.85346552  0.44997496    -0.15900
C4551       C  0.44327588  0.86962591  0.43986418    -0.01500
C4552       C  0.42868736  0.87095542  0.42771924    -0.09100
C4553       C  0.40596975  0.82442973  0.43249693     0.65200
H4554       H  0.43517046  0.82682279  0.45529732     0.10700
C4555       C  0.45595949  0.88562390  0.44247151     0.63600
H4556       H  0.42659236  0.88326947  0.42003214     0.08000
F4557       F  0.37550020  0.83835616  0.36019501    -0.19500
F4558       F  0.40534452  0.84367722  0.36065312    -0.15700
F4559       F  0.38639800  0.86595545  0.35280564    -0.19200
F4560       F  0.39673238  0.89020235  0.44146986    -0.22600
F4561       F  0.38679243  0.86322522  0.45166673    -0.24000
F4562       F  0.36702023  0.88436111  0.44283621    -0.18000
F4563       F  0.47355780  0.88059076  0.43872809    -0.20500
F4564       F  0.45494959  0.89163225  0.46015400    -0.21700
F4565       F  0.45159857  0.89992398  0.43116677    -0.18900
F4566       F  0.41001559  0.81022490  0.44403567    -0.18900
F4567       F  0.40751919  0.81829020  0.41490595    -0.22800
F4568       F  0.38824859  0.82950654  0.43561730    -0.24400
C4569       C  0.57658109  0.86450825  0.39435937    -0.11200
C4570       C  0.58068486  0.86631624  0.41279450     0.11400
C4571       C  0.59804334  0.87240198  0.41820606    -0.03000
C4572       C  0.61044369  0.87760259  0.40474920    -0.05700
C4573       C  0.60611309  0.87630859  0.38633256    -0.16500
C4574       C  0.58906556  0.86950763  0.38092193     0.02400
C4575       C  0.56621521  0.86214917  0.42599659     0.12400
C4576       C  0.60353119  0.87307424  0.43800381     0.63000
H4577       H  0.62373428  0.88258621  0.40846759     0.12400
C4578       C  0.58395286  0.86811096  0.36109453     0.55100
H4579       H  0.56330109  0.85951507  0.39062080     0.08200
C4580       C  0.55262089  0.87493689  0.43021626    -0.05600
C4581       C  0.53899593  0.86995873  0.44249171    -0.06400
C4582       C  0.53846866  0.85266466  0.45032867    -0.15900
C4583       C  0.55166748  0.83963660  0.44554127    -0.01500
C4584       C  0.56550409  0.84474097  0.43353833    -0.09100
C4585       C  0.55259947  0.89377466  0.42189652     0.65200
H4586       H  0.52874971  0.87966733  0.44638872     0.10700
C4587       C  0.55186843  0.82034995  0.45262617     0.63600
H4588       H  0.57577992  0.83496746  0.42983269     0.08000
F4589       F  0.58505331  0.88502137  0.35310887    -0.19500
F4590       F  0.56648932  0.86166088  0.35881116    -0.15700
F4591       F  0.59562757  0.85642236  0.35237340    -0.19200
F4592       F  0.60314318  0.85579498  0.44519415    -0.22600
F4593       F  0.59177274  0.88393321  0.44762058    -0.24000
F4594       F  0.62085768  0.87991835  0.44021362    -0.18000
F4595       F  0.55288576  0.80848949  0.43818898    -0.20500
F4596       F  0.53662691  0.81590666  0.46251654    -0.21700
F4597       F  0.56691964  0.81797365  0.46349291    -0.18900
F4598       F  0.53838305  0.90416464  0.42822643    -0.18900
F4599       F  0.55094728  0.89254837  0.40331160    -0.22800
F4600       F  0.56854962  0.90265726  0.42604158    -0.24400
C4601       C  0.42129857  0.84835336  0.56423913    -0.11200
C4602       C  0.42253778  0.86523574  0.57281376     0.11400
C4603       C  0.43568518  0.87801631  0.56715392    -0.03000
C4604       C  0.44701374  0.87349077  0.55265529    -0.05700
C4605       C  0.44595474  0.85653524  0.54426300    -0.16500
C4606       C  0.43300058  0.84365600  0.55003932     0.02400
C4607       C  0.41112677  0.86835620  0.58888719     0.12400
C4608       C  0.43811073  0.89610564  0.57665412     0.63000
H4609       H  0.45722204  0.88296177  0.54801026     0.12400
C4610       C  0.43207587  0.82489169  0.54173899     0.55100
H4611       H  0.41141093  0.83869227  0.56916938     0.08200
C4612       C  0.39288080  0.87399157  0.58754894    -0.05600
C4613       C  0.38308945  0.87670121  0.60360089    -0.06400
C4614       C  0.39114882  0.87421882  0.62059141    -0.15900
C4615       C  0.40936354  0.86867849  0.62190516    -0.01500
C4616       C  0.41896263  0.86532957  0.60590016    -0.09100
C4617       C  0.38391538  0.87732464  0.56934487     0.65200
H4618       H  0.36912139  0.88110147  0.60306220     0.10700
C4619       C  0.41871727  0.86702644  0.64008936     0.63600
H4620       H  0.43289149  0.86081612  0.60649013     0.08000
F4621       F  0.42807284  0.82611930  0.52351523    -0.19500
F4622       F  0.41889818  0.81428155  0.54983891    -0.15700
F4623       F  0.44855292  0.81630562  0.54385255    -0.19200
F4624       F  0.44356221  0.89332476  0.59432709    -0.22600
F4625       F  0.42200778  0.90556968  0.57662484    -0.24000
F4626       F  0.45108075  0.90675207  0.56826316    -0.18000
F4627       F  0.40964798  0.85461279  0.65078391    -0.20500
F4628       F  0.41874783  0.88368586  0.64860378    -0.21700
F4629       F  0.43649203  0.86138875  0.63833135    -0.18900
F4630       F  0.36635501  0.88354737  0.57125912    -0.18900
F4631       F  0.38335853  0.86142702  0.55952738    -0.22800
F4632       F  0.39356172  0.89015456  0.55970760    -0.24400
C4633       C  0.56890663  0.86732039  0.60526641    -0.11200
C4634       C  0.57634486  0.86504615  0.58796897     0.11400
C4635       C  0.59511676  0.86782246  0.58520086    -0.03000
C4636       C  0.60598666  0.87226975  0.60018662    -0.05700
C4637       C  0.59855518  0.87438346  0.61748473    -0.16500
C4638       C  0.57975876  0.87200787  0.62018209     0.02400
C4639       C  0.56379115  0.86098797  0.57286320     0.12400
C4640       C  0.60351225  0.86667283  0.56647442     0.63000
H4641       H  0.62039182  0.87443689  0.59849697     0.12400
C4642       C  0.57128152  0.87429446  0.63871782     0.55100
H4643       H  0.55446439  0.86541149  0.60694148     0.08200
C4644       C  0.55909066  0.84305427  0.56796598    -0.05600
C4645       C  0.54692729  0.84041945  0.55350882    -0.06400
C4646       C  0.53840356  0.85511654  0.54501517    -0.15900
C4647       C  0.54223243  0.87299605  0.55078247    -0.01500
C4648       C  0.55536041  0.87564290  0.56428260    -0.09100
C4649       C  0.56575769  0.82691236  0.57883472     0.65200
H4650       H  0.54327836  0.82686615  0.54926931     0.10700
C4651       C  0.53182529  0.88908756  0.54333712     0.63600
H4652       H  0.55871460  0.88919678  0.56876794     0.08000
F4653       F  0.55258669  0.87311599  0.63802630    -0.19500
F4654       F  0.57580855  0.89102060  0.64580974    -0.15700
F4655       F  0.57753620  0.86087380  0.65012457    -0.19200
F4656       F  0.59586243  0.87959836  0.55532450    -0.22600
F4657       F  0.60056443  0.84977021  0.55906664    -0.24000
F4658       F  0.62202003  0.86963208  0.56695646    -0.18000
F4659       F  0.51367364  0.88716312  0.54748115    -0.20500
F4660       F  0.53378484  0.89013774  0.52477510    -0.21700
F4661       F  0.53780377  0.90526949  0.55066445    -0.18900
F4662       F  0.56089983  0.81067790  0.57083650    -0.18900
F4663       F  0.55822941  0.82746483  0.59594521    -0.22800
F4664       F  0.58437476  0.82720569  0.58045988    -0.24400
C4665       C  0.09950774  0.40536788  0.43740815    -0.11200
C4666       C  0.11490699  0.39888409  0.42850757     0.11400
C4667       C  0.13223031  0.40568188  0.43314427    -0.03000
C4668       C  0.13352959  0.41864683  0.44703717    -0.05700
C4669       C  0.11809153  0.42497163  0.45605806    -0.16500
C4670       C  0.10077067  0.41824093  0.45129188     0.02400
C4671       C  0.11204159  0.38559895  0.41378211     0.12400
C4672       C  0.14913197  0.39954143  0.42324134     0.63000
H4673       H  0.14657602  0.42416967  0.45084153     0.12400
C4674       C  0.08369185  0.42473397  0.46067947     0.55100
H4675       H  0.08640426  0.40022171  0.43327452     0.08200
C4676       C  0.10846669  0.36708825  0.41738328    -0.05600
C4677       C  0.10395283  0.35567576  0.40282774    -0.06400
C4678       C  0.10268182  0.36234186  0.38511192    -0.15900
C4679       C  0.10635934  0.38077448  0.38150743    -0.01500
C4680       C  0.11096445  0.39217970  0.39600964    -0.09100
C4681       C  0.10907328  0.35954679  0.43652180     0.65200
H4682       H  0.10097605  0.34150377  0.40519276     0.10700
C4683       C  0.10515640  0.38830774  0.36245459     0.63600
H4684       H  0.11336335  0.40646436  0.39367895     0.08000
F4685       F  0.08476561  0.42120940  0.47901544    -0.33100
F4686       F  0.06837847  0.41615200  0.45407105    -0.15700
F4687       F  0.08159273  0.44313081  0.45804552    -0.19200
F4688       F  0.14816820  0.40474675  0.40529715    -0.22600
F4689       F  0.15067638  0.38092216  0.42413858    -0.24000
F4690       F  0.16465807  0.40702653  0.43063198    -0.18000
F4691       F  0.08788627  0.38575350  0.35574346    -0.20500
F4692       F  0.11739171  0.37946470  0.35144102    -0.21700
F4693       F  0.10898096  0.40665709  0.36189963    -0.18900
F4694       F  0.10595858  0.34106324  0.43685606    -0.18900
F4695       F  0.09598112  0.36772974  0.44703091    -0.22800
F4696       F  0.12586928  0.36274670  0.44412176    -0.24400
C4697       C  0.12785866  0.53628232  0.43024442    -0.11200
C4698       C  0.11009072  0.54290253  0.42953146     0.11400
C4699       C  0.09746936  0.53805670  0.44311159    -0.03000
C4700       C  0.10312852  0.52646877  0.45701040    -0.05700
C4701       C  0.12070451  0.51941742  0.45742971    -0.16500
C4702       C  0.13346163  0.52455541  0.44413402     0.02400
C4703       C  0.10469221  0.55391436  0.41374240     0.12400
C4704       C  0.07799525  0.54463711  0.44266352     0.63000
H4705       H  0.09362191  0.52208519  0.46728545     0.12400
C4706       C  0.15273421  0.51754089  0.44460013     0.55100
H4707       H  0.13714607  0.54000498  0.41953040     0.08200
C4708       C  0.10893439  0.57253273  0.41234119    -0.05600
C4709       C  0.10264398  0.58215120  0.39717866    -0.06400
C4710       C  0.09222845  0.57369045  0.38372335    -0.15900
C4711       C  0.08835388  0.55494651  0.38498328    -0.01500
C4712       C  0.09494457  0.54530394  0.39995642    -0.09100
C4713       C  0.12005715  0.58209698  0.42675004     0.65200
H4714       H  0.10569248  0.59643246  0.39575145     0.10700
C4715       C  0.07760126  0.54508343  0.37051668     0.63600
H4716       H  0.09226832  0.53093557  0.40125116     0.08000
F4717       F  0.16322171  0.52513906  0.43104184    -0.19500
F4718       F  0.15283395  0.49897417  0.44234781    -0.15700
F4719       F  0.16057367  0.52175577  0.46106319    -0.19200
F4720       F  0.06915368  0.53748865  0.42780888    -0.22600
F4721       F  0.07760723  0.56331487  0.44164855    -0.24000
F4722       F  0.06853548  0.53943967  0.45798869    -0.18000
F4723       F  0.07692550  0.52660865  0.37365206    -0.20500
F4724       F  0.08546555  0.54787482  0.35376338    -0.21700
F4725       F  0.06004272  0.55141905  0.37027808    -0.18900
F4726       F  0.12155254  0.60047359  0.42335780    -0.18900
F4727       F  0.13730561  0.57491332  0.42724007    -0.22800
F4728       F  0.11205234  0.57989991  0.44351690    -0.24400
C4729       C  0.11590747  0.40437203  0.57207739    -0.11200
C4730       C  0.09934780  0.39543417  0.56965539     0.11400
C4731       C  0.08652062  0.40209137  0.55709706    -0.03000
C4732       C  0.09135477  0.41700819  0.54635268    -0.05700
C4733       C  0.10837633  0.42527351  0.54805673    -0.16500
C4734       C  0.12082456  0.41912577  0.56119803     0.02400
C4735       C  0.09616817  0.37882356  0.58025432     0.12400
C4736       C  0.06793220  0.39348422  0.55507171     0.63000
H4737       H  0.08205563  0.42217933  0.53626360     0.12400
C4738       C  0.13939103  0.42770537  0.56321449     0.55100
H4739       H  0.12522735  0.39920324  0.58214975     0.08200
C4740       C  0.10423071  0.36214671  0.57540846    -0.05600
C4741       C  0.10141171  0.34709863  0.58667346    -0.06400
C4742       C  0.09035256  0.34822375  0.60200287    -0.15900
C4743       C  0.08214780  0.36488277  0.60673833    -0.01500
C4744       C  0.08555307  0.38008486  0.59586298    -0.09100
C4745       C  0.11535900  0.36017481  0.55822198     0.65200
H4746       H  0.10751198  0.33418788  0.58341060     0.10700
C4747       C  0.07010543  0.36671387  0.62328898     0.63600
H4748       H  0.07984131  0.39311217  0.59934639     0.08000
F4749       F  0.14960011  0.41918906  0.57642278    -0.19500
F4750       F  0.13762383  0.44569876  0.56797113    -0.15700
F4751       F  0.14868520  0.42654405  0.54702614    -0.19200
F4752       F  0.05829636  0.39552391  0.57095884    -0.22600
F4753       F  0.06958934  0.37524583  0.55127182    -0.24000
F4754       F  0.05806150  0.40140642  0.54124779    -0.18000
F4755       F  0.07904671  0.36034624  0.63845280    -0.20500
F4756       F  0.05434806  0.35690598  0.62079194    -0.21700
F4757       F  0.06533804  0.38454681  0.62646202    -0.18900
F4758       F  0.12145882  0.34262711  0.55588888    -0.18900
F4759       F  0.13031217  0.37141929  0.55881136    -0.22800
F4760       F  0.10490078  0.36468970  0.54337390    -0.24400
C4761       C  0.09276537  0.54294032  0.56195455    -0.11200
C4762       C  0.10492088  0.54557284  0.57629068     0.11400
C4763       C  0.12068981  0.53475614  0.57747499    -0.03000
C4764       C  0.12436534  0.52237639  0.56346417    -0.05700
C4765       C  0.11230317  0.51989543  0.54899116    -0.16500
C4766       C  0.09598364  0.52994715  0.54841886     0.02400
C4767       C  0.10033005  0.55930572  0.59024736     0.12400
C4768       C  0.13304255  0.53567751  0.59389036     0.63000
H4769       H  0.13639029  0.51403559  0.56398346     0.12400
C4770       C  0.08177631  0.52652418  0.53393559     0.55100
H4771       H  0.08056203  0.55102949  0.56162903     0.08200
C4772       C  0.10584275  0.57761985  0.58869583    -0.05600
C4773       C  0.10122789  0.58979889  0.60260344    -0.06400
C4774       C  0.09039716  0.58443233  0.61725378    -0.15900
C4775       C  0.08440611  0.56623190  0.61850352    -0.01500
C4776       C  0.08969455  0.55388427  0.60500522    -0.09100
C4777       C  0.11557397  0.58446108  0.57192170     0.65200
H4778       H  0.10538700  0.60384466  0.60176543     0.10700
C4779       C  0.07277277  0.55982397  0.63419379     0.63600
H4780       H  0.08540121  0.53987333  0.60572002     0.08000
F4781       F  0.07696814  0.50842055  0.53386477    -0.19500
F4782       F  0.06624931  0.53653690  0.53690209    -0.15700
F4783       F  0.08850305  0.53118294  0.51712748    -0.19200
F4784       F  0.12359028  0.53014651  0.60906798    -0.22600
F4785       F  0.13915813  0.55316160  0.59653938    -0.24000
F4786       F  0.14799449  0.52457999  0.59199831    -0.18000
F4787       F  0.05623696  0.56852918  0.63382509    -0.20500
F4788       F  0.08141067  0.56357395  0.65037684    -0.21700
F4789       F  0.06952271  0.54137599  0.63345983    -0.18900
F4790       F  0.12091419  0.60234284  0.57373257    -0.18900
F4791       F  0.10405876  0.58324124  0.55721735    -0.22800
F4792       F  0.13084308  0.57425429  0.56853522    -0.24400
C4793       C  0.41327595  0.07594415  0.40005674    -0.11200
C4794       C  0.40936896  0.07468096  0.41856192     0.11400
C4795       C  0.39205636  0.06893575  0.42439561    -0.03000
C4796       C  0.37956933  0.06305614  0.41130177    -0.05700
C4797       C  0.38370343  0.06376178  0.39280167    -0.16500
C4798       C  0.40055294  0.07071790  0.38694303     0.02400
C4799       C  0.42377911  0.07942279  0.43155059     0.12400
C4800       C  0.38679050  0.06936963  0.44427711     0.63000
H4801       H  0.36638711  0.05805853  0.41536250     0.12400
C4802       C  0.40518455  0.07211570  0.36697772     0.55100
H4803       H  0.42649945  0.08084651  0.39602047     0.08200
C4804       C  0.43703758  0.06668609  0.43684848    -0.05600
C4805       C  0.45030618  0.07210977  0.44928017    -0.06400
C4806       C  0.45021648  0.08946350  0.45693746    -0.15900
C4807       C  0.43670941  0.10207349  0.45193242    -0.01500
C4808       C  0.42399114  0.09696209  0.43874453    -0.09100
C4809       C  0.43693727  0.04738338  0.42972607     0.65200
H4810       H  0.46065649  0.06266856  0.45358309     0.10700
C4811       C  0.43547244  0.12056901  0.46072421     0.63600
H4812       H  0.41370468  0.10641230  0.43432140     0.08000
F4813       F  0.40427650  0.05514834  0.35913515    -0.19500
F4814       F  0.42242400  0.07896503  0.36426397    -0.15700
F4815       F  0.39309698  0.08352253  0.35838935    -0.19200
F4816       F  0.38776163  0.08694005  0.45062729    -0.22600
F4817       F  0.39835089  0.05865638  0.45434003    -0.24000
F4818       F  0.36930745  0.06319051  0.44698979    -0.18000
F4819       F  0.45144712  0.12997432  0.45812171    -0.20500
F4820       F  0.43237921  0.11863313  0.47906492    -0.21700
F4821       F  0.42144843  0.13073666  0.45356531    -0.18900
F4822       F  0.45095661  0.03724404  0.43691183    -0.18900
F4823       F  0.43875227  0.04743881  0.41112118    -0.22800
F4824       F  0.42085945  0.03893583  0.43425587    -0.24400
C4825       C  0.42625363  0.09302404  0.56867357    -0.11200
C4826       C  0.42761344  0.07651102  0.57791947     0.11400
C4827       C  0.44214522  0.06466062  0.57421128    -0.03000
C4828       C  0.45467972  0.06963020  0.56084452    -0.05700
C4829       C  0.45326818  0.08608722  0.55142580    -0.16500
C4830       C  0.43907749  0.09827016  0.55567357     0.02400
C4831       C  0.41302627  0.07149410  0.59066236     0.12400
C4832       C  0.44423335  0.04672857  0.58408976     0.63000
H4833       H  0.46557564  0.06050214  0.55732402     0.12400
C4834       C  0.43677332  0.11688089  0.54723646     0.55100
H4835       H  0.41498926  0.10192497  0.57164350     0.08200
C4836       C  0.41228428  0.07829983  0.60852436    -0.05600
C4837       C  0.39808180  0.07252899  0.61981822    -0.06400
C4838       C  0.38479385  0.06033551  0.61369569    -0.15900
C4839       C  0.38538848  0.05390036  0.59566863    -0.01500
C4840       C  0.39956440  0.05968278  0.58441671    -0.09100
C4841       C  0.42627713  0.09170914  0.61548261     0.65200
H4842       H  0.39719683  0.07754405  0.63355662     0.10700
C4843       C  0.37086453  0.04145811  0.58814938     0.63600
H4844       H  0.40035121  0.05495956  0.57056901     0.08000
F4845       F  0.43670032  0.12975879  0.56081042    -0.19500
F4846       F  0.42039168  0.11754787  0.53819009    -0.15700
F4847       F  0.45034331  0.12142736  0.53521283    -0.19200
F4848       F  0.43029593  0.03517396  0.57932704    -0.22600
F4849       F  0.44385036  0.04946260  0.60258497    -0.24000
F4850       F  0.46044501  0.03836293  0.57989960    -0.18000
F4851       F  0.35397083  0.04896792  0.59099605    -0.20500
F4852       F  0.37182551  0.02480379  0.59660874    -0.21700
F4853       F  0.37288169  0.03868397  0.56974360    -0.18900
F4854       F  0.42386691  0.09547555  0.63366754    -0.18900
F4855       F  0.42490594  0.10777524  0.60597829    -0.22800
F4856       F  0.44351538  0.08482014  0.61329219    -0.24400
C4857       C  0.55785425  0.06411305  0.43242019    -0.11200
C4858       C  0.56969504  0.07824249  0.42778613     0.11400
C4859       C  0.56704264  0.09571317  0.43515778    -0.03000
C4860       C  0.55342233  0.09811810  0.44822672    -0.05700
C4861       C  0.54201495  0.08382632  0.45337672    -0.16500
C4862       C  0.54376756  0.06669445  0.44496604     0.02400
C4863       C  0.58531265  0.07419782  0.41583279     0.12400
C4864       C  0.57829392  0.11177013  0.42890998     0.63000
H4865       H  0.55148291  0.11120532  0.45451205     0.12400
C4866       C  0.53079136  0.05130279  0.44926412     0.55100
H4867       H  0.55991196  0.05097985  0.42626732     0.08200
C4868       C  0.60154453  0.06675315  0.42280453    -0.05600
C4869       C  0.61594137  0.06346747  0.41085085    -0.06400
C4870       C  0.61473163  0.06779584  0.39241486    -0.15900
C4871       C  0.59867523  0.07566934  0.38550541    -0.01500
C4872       C  0.58406041  0.07851758  0.39738835    -0.09100
C4873       C  0.60362398  0.06223607  0.44276385     0.65200
H4874       H  0.62831544  0.05736506  0.41579915     0.10700
C4875       C  0.59685761  0.08065576  0.36565184     0.63600
H4876       H  0.57153731  0.08428010  0.39242850     0.08000
F4877       F  0.53487948  0.03580578  0.43959749    -0.19500
F4878       F  0.51333422  0.05638597  0.44486463    -0.15700
F4879       F  0.53154343  0.04710415  0.46747860    -0.19200
F4880       F  0.57394482  0.11578567  0.41115272    -0.22600
F4881       F  0.59655773  0.10787838  0.43000743    -0.24000
F4882       F  0.57506712  0.12699380  0.43929893    -0.18000
F4883       F  0.57970496  0.08695520  0.36156250    -0.20500
F4884       F  0.60018840  0.06564052  0.35500372    -0.21700
F4885       F  0.60910824  0.09417005  0.36137494    -0.18900
F4886       F  0.62112183  0.05700449  0.44694729    -0.18900
F4887       F  0.59207375  0.04820692  0.44728897    -0.22800
F4888       F  0.59952888  0.07718825  0.45321069    -0.24400
C4889       C  0.57375477  0.09173515  0.56346921    -0.11200
C4890       C  0.57367009  0.07569219  0.57364814     0.11400
C4891       C  0.55915056  0.06328658  0.57176543    -0.03000
C4892       C  0.54589753  0.06666983  0.55850020    -0.05700
C4893       C  0.54629429  0.08244886  0.54789301    -0.16500
C4894       C  0.56002994  0.09552269  0.55079927     0.02400
C4895       C  0.58885945  0.07235626  0.58640560     0.12400
C4896       C  0.55747768  0.04683415  0.58402556     0.63000
H4897       H  0.53490959  0.05716236  0.55644958     0.12400
C4898       C  0.55977303  0.11360188  0.54099931     0.55100
H4899       H  0.58467882  0.10129739  0.56560341     0.08200
C4900       C  0.60518808  0.06414970  0.58071306    -0.05600
C4901       C  0.61877166  0.06082642  0.59366300    -0.06400
C4902       C  0.61648550  0.06546919  0.61193611    -0.15900
C4903       C  0.60009142  0.07358922  0.61761195    -0.01500
C4904       C  0.58665653  0.07724874  0.60459284    -0.09100
C4905       C  0.60814156  0.05882385  0.56107982     0.65200
H4906       H  0.63129204  0.05437863  0.58965720     0.10700
C4907       C  0.59644564  0.07755101  0.63741312     0.63600
H4908       H  0.57407709  0.08360059  0.60856462     0.08000
F4909       F  0.56186628  0.11104645  0.52260860    -0.19500
F4910       F  0.57352561  0.12491873  0.54685729    -0.15700
F4911       F  0.54345667  0.12218226  0.54415148    -0.19200
F4912       F  0.55566363  0.05240225  0.60178360    -0.22600
F4913       F  0.57268841  0.03608746  0.58257844    -0.24000
F4914       F  0.54252535  0.03637386  0.57970668    -0.18000
F4915       F  0.57887306  0.08336626  0.64022112    -0.20500
F4916       F  0.60804438  0.09095869  0.64338400    -0.21700
F4917       F  0.59905100  0.06204544  0.64760856    -0.18900
F4918       F  0.62476933  0.05061451  0.55853118    -0.18900
F4919       F  0.60746509  0.07404556  0.55020672    -0.22800
F4920       F  0.59486389  0.04681103  0.55560289    -0.24400
loop_ 
_geom_bond_atom_site_label_1 
_geom_bond_atom_site_label_2 
_geom_bond_distance 
_geom_bond_site_symmetry_2 
_ccdc_geom_bond_type 
N1            C6   1.354       .  A
N1            C5   1.354       .  A
N1           H33   1.039       .  S
N2            C9   1.351       .  A
N2           C10   1.350       .  A
N3            C8   1.353       .  A
N3            C7   1.353       .  A
N3           H34   1.040       .  S
N4           C11   1.351       .  A
N4           C12   1.350       .  A
C5           C13   1.388       .  A
C5           C21   1.418       .  A
C6           C22   1.416       .  A
C6           C14   1.386       .  A
C7           C15   1.388       .  A
C7           C24   1.414       .  A
C8           C23   1.413       .  A
C8           C16   1.387       .  A
C9           C21   1.413       .  A
C9           C17   1.386       .  A
C10          C24   1.412       .  A
C10          C18   1.386       .  A
C11          C19   1.386       .  A
C11          C22   1.412       .  A
C12          C20   1.386       .  A
C12          C23   1.410       .  A
C13          C14   1.376       .  A
C13          H25   1.082       .  S
C14          H26   1.082       .  S
C15          C16   1.373       .  A
C15          H27   1.083       .  S
C16          H28   1.082       .  S
C17          C18   1.375       .  A
C17          H29   1.082       .  S
C18          H30   1.083       .  S
C19          C20   1.372       .  A
C19          H31   1.082       .  S
C20          H32   1.083       .  S
C21        C4861   1.490       .  S
C22        C4893   1.492       .  S
C23        C4829   1.486       .  S
C24        C4806   1.484       .  S
N35          C40   1.354       .  A
N35          C39   1.351       .  A
N35          H67   1.039       .  S
N36          C43   1.348       .  A
N36          C44   1.351       .  A
N37          C42   1.351       .  A
N37          C41   1.355       .  A
N37          H68   1.039       .  S
N38          C45   1.352       .  A
N38          C46   1.349       .  A
C39          C47   1.387       .  A
C39          C55   1.412       .  A
C40          C56   1.416       .  A
C40          C48   1.387       .  A
C41          C49   1.385       .  A
C41          C58   1.412       .  A
C42          C57   1.416       .  A
C42          C50   1.390       .  A
C43          C55   1.411       .  A
C43          C51   1.388       .  A
C44          C58   1.408       .  A
C44          C52   1.385       .  A
C45          C53   1.386       .  A
C45          C56   1.413       .  A
C46          C54   1.386       .  A
C46          C57   1.411       .  A
C47          C48   1.375       .  A
C47          H59   1.082       .  S
C48          H60   1.082       .  S
C49          C50   1.371       .  A
C49          H61   1.082       .  S
C50          H62   1.082       .  S
C51          C52   1.371       .  A
C51          H63   1.083       .  S
C52          H64   1.082       .  S
C53          C54   1.374       .  A
C53          H65   1.082       .  S
C54          H66   1.082       .  S
C55        C4733   1.479       .  S
C56        C4765   1.494       .  S
C57        C4701   1.481       .  S
C58        C4669   1.487       .  S
N69          C74   1.352       .  A
N69          C73   1.351       .  A
N69         H101   1.036       .  S
N70          C77   1.349       .  A
N70          C78   1.350       .  A
N71          C76   1.351       .  A
N71          C75   1.353       .  A
N71         H102   1.037       .  S
N72          C79   1.353       .  A
N72          C80   1.351       .  A
C73          C81   1.388       .  A
C73          C89   1.415       .  A
C74          C90   1.414       .  A
C74          C82   1.387       .  A
C75          C83   1.386       .  A
C75          C92   1.414       .  A
C76          C91   1.414       .  A
C76          C84   1.387       .  A
C77          C89   1.410       .  A
C77          C85   1.387       .  A
C78          C92   1.411       .  A
C78          C86   1.386       .  A
C79          C87   1.386       .  A
C79          C90   1.414       .  A
C80          C88   1.387       .  A
C80          C91   1.414       .  A
C81          C82   1.376       .  A
C81          H93   1.082       .  S
C82          H94   1.082       .  S
C83          C84   1.378       .  A
C83          H95   1.082       .  S
C84          H96   1.082       .  S
C85          C86   1.371       .  A
C85          H97   1.082       .  S
C86          H98   1.083       .  S
C87          C88   1.372       .  A
C87          H99   1.082       .  S
C88         H100   1.082       .  S
C89        C4605   1.481       .  S
C90        C4646   1.489       .  S
C91        C4582   1.484       .  S
C92        C4550   1.487       .  S
N103        C108   1.351       .  A
N103        C107   1.351       .  A
N103        H135   1.040       .  S
N104        C111   1.349       .  A
N104        C112   1.349       .  A
N105        C110   1.351       .  A
N105        C109   1.351       .  A
N105        H136   1.039       .  S
N106        C113   1.348       .  A
N106        C114   1.348       .  A
C107        C115   1.388       .  A
C107        C123   1.411       .  A
C108        C124   1.410       .  A
C108        C116   1.387       .  A
C109        C117   1.387       .  A
C109        C126   1.412       .  A
C110        C125   1.411       .  A
C110        C118   1.387       .  A
C111        C123   1.409       .  A
C111        C119   1.386       .  A
C112        C126   1.409       .  A
C112        C120   1.386       .  A
C113        C121   1.386       .  A
C113        C124   1.408       .  A
C114        C122   1.386       .  A
C114        C125   1.408       .  A
C115        C116   1.375       .  A
C115        H127   1.082       .  S
C116        H128   1.082       .  S
C117        C118   1.375       .  A
C117        H129   1.082       .  S
C118        H130   1.083       .  S
C119        C120   1.372       .  A
C119        H131   1.082       .  S
C120        H132   1.083       .  S
C121        C122   1.372       .  A
C121        H133   1.082       .  S
C122        H134   1.082       .  S
C123       C4422   1.480       .  S
C124       C4477   1.479       .  S
C125       C4509   1.479       .  S
C126       C4454   1.479       .  S
N137        C142   1.351       .  A
N137        C141   1.357       .  A
N137        H169   1.033       .  S
N138        C145   1.350       .  A
N138        C146   1.347       .  A
N139        C144   1.353       .  A
N139        C143   1.352       .  A
N139        H170   1.038       .  S
N140        C147   1.351       .  A
N140        C148   1.354       .  A
C141        C149   1.386       .  A
C141        C157   1.421       .  A
C142        C158   1.421       .  A
C142        C150   1.389       .  A
C143        C151   1.388       .  A
C143        C160   1.416       .  A
C144        C159   1.413       .  A
C144        C152   1.386       .  A
C145        C157   1.411       .  A
C145        C153   1.385       .  A
C146        C160   1.412       .  A
C146        C154   1.388       .  A
C147        C155   1.389       .  A
C147        C158   1.420       .  A
C148        C156   1.384       .  A
C148        C159   1.413       .  A
C149        C150   1.373       .  A
C149        H161   1.082       .  S
C150        H162   1.082       .  S
C151        C152   1.373       .  A
C151        H163   1.082       .  S
C152        H164   1.082       .  S
C153        C154   1.374       .  A
C153        H165   1.082       .  S
C154        H166   1.082       .  S
C155        C156   1.373       .  A
C155        H167   1.082       .  S
C156        H168   1.082       .  S
C157       C4317   1.496       .  S
C158       C4381   1.484       .  S
C159       C4349   1.492       .  S
C160       C4285   1.482       .  S
N171        C176   1.349       .  A
N171        C175   1.353       .  A
N171        H203   1.046       .  S
N172        C179   1.351       .  A
N172        C180   1.351       .  A
N173        C178   1.348       .  A
N173        C177   1.352       .  A
N173        H204   1.048       .  S
N174        C181   1.355       .  A
N174        C182   1.353       .  A
C175        C183   1.386       .  A
C175        C191   1.418       .  A
C176        C192   1.418       .  A
C176        C184   1.389       .  A
C177        C185   1.383       .  A
C177        C194   1.414       .  A
C178        C193   1.421       .  A
C178        C186   1.392       .  A
C179        C191   1.399       .  A
C179        C187   1.382       .  A
C180        C194   1.401       .  A
C180        C188   1.386       .  A
C181        C189   1.386       .  A
C181        C192   1.422       .  A
C182        C190   1.388       .  A
C182        C193   1.423       .  A
C183        C184   1.381       .  A
C183        H195   1.082       .  S
C184        H196   1.082       .  S
C185        C186   1.381       .  A
C185        H197   1.083       .  S
C186        H198   1.082       .  S
C187        C188   1.370       .  A
C187        H199   1.083       .  S
C188        H200   1.083       .  S
C189        C190   1.376       .  A
C189        H201   1.083       .  S
C190        H202   1.082       .  S
C191       C4230   1.485       .  S
C192       C4253   1.493       .  S
C193       C4189   1.490       .  S
C194       C4157   1.484       .  S
N205        C210   1.350       .  A
N205        C209   1.352   1_655  A
N205        H237   1.035       .  S
N206        C213   1.350       .  A
N206        C214   1.350   1_554  A
N207        C212   1.352       .  A
N207        C211   1.352   1_655  A
N207        H238   1.037       .  S
N208        C215   1.353       .  A
N208        C216   1.353   1_554  A
C209        C217   1.387       .  A
C209        C225   1.413       .  A
C210        C226   1.412       .  A
C210        C218   1.387       .  A
C211        C219   1.387       .  A
C211        C228   1.413       .  A
C212        C227   1.415       .  A
C212        C220   1.387       .  A
C213        C225   1.412       .  A
C213        C221   1.387       .  A
C214        C228   1.412       .  A
C214        C222   1.386       .  A
C215        C223   1.387       .  A
C215        C226   1.417       .  A
C216        C224   1.386       .  A
C216        C227   1.416       .  A
C217        C218   1.374   1_455  A
C217        H229   1.082       .  S
C218        H230   1.082       .  S
C219        C220   1.376   1_455  A
C219        H231   1.082       .  S
C220        H232   1.082       .  S
C221        C222   1.371   1_554  A
C221        H233   1.082       .  S
C222        H234   1.082       .  S
C223        C224   1.376   1_554  A
C223        H235   1.082       .  S
C224        H236   1.082       .  S
C225       C4134   1.483       .  S
C226       C4061   1.487       .  S
C227       C4038   1.488       .  S
C228       C4102   1.485       .  S
N239        C244   1.351       .  A
N239        C243   1.352       .  A
N239        H271   1.039       .  S
N240        C247   1.348   1_556  A
N240        C248   1.348       .  A
N241        C246   1.350       .  A
N241        C245   1.349       .  A
N241        H272   1.040       .  S
N242        C249   1.348   1_556  A
N242        C250   1.349       .  A
C243        C251   1.387       .  A
C243        C259   1.414       .  A
C244        C260   1.412   1_565  A
C244        C252   1.387       .  A
C245        C253   1.388       .  A
C245        C262   1.409       .  A
C246        C261   1.408   1_565  A
C246        C254   1.387       .  A
C247        C259   1.408       .  A
C247        C255   1.386       .  A
C248        C262   1.409       .  A
C248        C256   1.387       .  A
C249        C257   1.387       .  A
C249        C260   1.408       .  A
C250        C258   1.386       .  A
C250        C261   1.407       .  A
C251        C252   1.375       .  A
C251        H263   1.082       .  S
C252        H264   1.082       .  S
C253        C254   1.373       .  A
C253        H265   1.082       .  S
C254        H266   1.082       .  S
C255        C256   1.372   1_554  A
C255        H267   1.082       .  S
C256        H268   1.083       .  S
C257        C258   1.372   1_554  A
C257        H269   1.082       .  S
C258        H270   1.082       .  S
C259       C3974   1.483       .  S
C260       C4006   1.479       .  S
C261       C3933   1.478       .  S
C262       C3901   1.477       .  S
N273        C278   1.349       .  A
N273        C277   1.352   1_556  A
N273        H305   1.040       .  S
N274        C281   1.350   1_455  A
N274        C282   1.347       .  A
N275        C280   1.353       .  A
N275        C279   1.350   1_556  A
N275        H306   1.040       .  S
N276        C283   1.346   1_455  A
N276        C284   1.348       .  A
C277        C285   1.387       .  A
C277        C293   1.412       .  A
C278        C294   1.410       .  A
C278        C286   1.387       .  A
C279        C287   1.389       .  A
C279        C296   1.414       .  A
C280        C295   1.410       .  A
C280        C288   1.385       .  A
C281        C293   1.411       .  A
C281        C289   1.386       .  A
C282        C296   1.409       .  A
C282        C290   1.386       .  A
C283        C291   1.387       .  A
C283        C294   1.406       .  A
C284        C292   1.385       .  A
C284        C295   1.405       .  A
C285        C286   1.376   1_554  A
C285        H297   1.082       .  S
C286        H298   1.083       .  S
C287        C288   1.376   1_554  A
C287        H299   1.082       .  S
C288        H300   1.083       .  S
C289        C290   1.376   1_655  A
C289        H301   1.082       .  S
C290        H302   1.082       .  S
C291        C292   1.372   1_655  A
C291        H303   1.082       .  S
C292        H304   1.082       .  S
C293       C3837   1.486       .  S
C294       C3773   1.473       .  S
C295       C3805   1.484       .  S
C296       C3869   1.479       .  S
N307        C312   1.354   1_564  A
N307        C311   1.352   1_565  A
N307        H339   1.039       .  S
N308        C315   1.349       .  A
N308        C316   1.351       .  A
N309        C314   1.351   1_554  A
N309        C313   1.352       .  A
N309        H340   1.038       .  S
N310        C317   1.350       .  A
N310        C318   1.350       .  A
C311        C319   1.389       .  A
C311        C327   1.416   1_545  A
C312        C328   1.411       .  A
C312        C320   1.385       .  A
C313        C321   1.388       .  A
C313        C330   1.415       .  A
C314        C329   1.412       .  A
C314        C322   1.387       .  A
C315        C327   1.412       .  A
C315        C323   1.387       .  A
C316        C330   1.411       .  A
C316        C324   1.385       .  A
C317        C325   1.386       .  A
C317        C328   1.409   1_565  A
C318        C326   1.386       .  A
C318        C329   1.410       .  A
C319        C320   1.372   1_554  A
C319        H331   1.082       .  S
C320        H332   1.082       .  S
C321        C322   1.372   1_554  A
C321        H333   1.082       .  S
C322        H334   1.082       .  S
C323        C324   1.373       .  A
C323        H335   1.083       .  S
C324        H336   1.082       .  S
C325        C326   1.373       .  A
C325        H337   1.082       .  S
C326        H338   1.082       .  S
C327       C3741   1.482   1_565  S
C328       C3709   1.485       .  S
C329       C3654   1.481       .  S
C330       C3677   1.486       .  S
N341        C346   1.353   1_565  A
N341        C345   1.351   1_465  A
N341        H373   1.039       .  S
N342        C349   1.349       .  A
N342        C350   1.350       .  A
N343        C348   1.351       .  A
N343        C347   1.352   1_455  A
N343        H374   1.039       .  S
N344        C351   1.352       .  A
N344        C352   1.351       .  A
C345        C353   1.386       .  A
C345        C361   1.412   1_545  A
C346        C362   1.414       .  A
C346        C354   1.387       .  A
C347        C355   1.386       .  A
C347        C364   1.412       .  A
C348        C363   1.414       .  A
C348        C356   1.388       .  A
C349        C361   1.410       .  A
C349        C357   1.387       .  A
C350        C364   1.411       .  A
C350        C358   1.387       .  A
C351        C359   1.385       .  A
C351        C362   1.414   1_565  A
C352        C360   1.387       .  A
C352        C363   1.414       .  A
C353        C354   1.377   1_655  A
C353        H365   1.082       .  S
C354        H366   1.082       .  S
C355        C356   1.379   1_655  A
C355        H367   1.082       .  S
C356        H368   1.082       .  S
C357        C358   1.370       .  A
C357        H369   1.082       .  S
C358        H370   1.083       .  S
C359        C360   1.375       .  A
C359        H371   1.082       .  S
C360        H372   1.082       .  S
C361       C3549   1.482   1_565  S
C362       C3613   1.493       .  S
C363       C3590   1.487       .  S
C364       C3517   1.485       .  S
N375        C380   1.355       .  A
N375        C379   1.354       .  A
N375        H407   1.036       .  S
N376        C383   1.351   1_665  A
N376        C384   1.350   1_565  A
N377        C382   1.353       .  A
N377        C381   1.352       .  A
N377        H408   1.037       .  S
N378        C385   1.351   1_655  A
N378        C386   1.351       .  A
C379        C387   1.386       .  A
C379        C395   1.418   1_565  A
C380        C396   1.420       .  A
C380        C388   1.388       .  A
C381        C389   1.387       .  A
C381        C398   1.413       .  A
C382        C397   1.415       .  A
C382        C390   1.388       .  A
C383        C395   1.413       .  A
C383        C391   1.387   1_455  A
C384        C398   1.411   1_545  A
C384        C392   1.386       .  A
C385        C393   1.387       .  A
C385        C396   1.415       .  A
C386        C394   1.386       .  A
C386        C397   1.413       .  A
C387        C388   1.376       .  A
C387        H399   1.082       .  S
C388        H400   1.082       .  S
C389        C390   1.372       .  A
C389        H401   1.082       .  S
C390        H402   1.083       .  S
C391        C392   1.372       .  A
C391        H403   1.082   1_655  S
C392        H404   1.082       .  S
C393        C394   1.373   1_455  A
C393        H405   1.082       .  S
C394        H406   1.082       .  S
C395       C3485   1.489       .  S
C396       C3421   1.491       .  S
C397       C3398   1.485       .  S
C398       C3453   1.483   1_565  S
C409        N410   1.362       .  A
C409        N414   1.357       .  A
C409       C3325   1.483       .  S
N410        C411   1.362       .  A
C411        N412   1.362       .  A
C411       C3357   1.502       .  S
N412        C413   1.356       .  A
C413        N414   1.354       .  A
C413       C4637   1.471       .  S
C415        N416   1.364       .  A
C415        N420   1.360       .  A
C415       C3302   1.488       .  S
N416        C417   1.360       .  A
C417        N418   1.354       .  A
C417       C4902   1.481       .  S
N418        C419   1.355       .  A
C419        N420   1.359       .  A
C419       C3366   1.475       .  S
C421        N422   1.364       .  A
C421        N426   1.359       .  A
C421       C3238   1.497       .  S
N422        C423   1.362       .  A
C423        N424   1.355       .  A
C423       C3261   1.487       .  S
N424        C425   1.356       .  A
C425        N426   1.353       .  A
C425       C4518   1.473       .  S
C427        N428   1.364       .  A
C427        N432   1.361       .  A
C427       C3197   1.493       .  S
N428        C429   1.360       .  A
C429        N430   1.357       .  A
C429       C3270   1.479       .  S
N430        C431   1.355       .  A
C431        N432   1.357       .  A
C431       C4774   1.480       .  S
C433        N434   1.361       .  A
C433        N438   1.360       .  A
C433       C3133   1.483       .  S
N434        C435   1.360       .  A
C435        N436   1.357       .  A
C435       C4262   1.483       .  S
N436        C437   1.361       .  A
C437        N438   1.357       .  A
C437       C3165   1.486       .  S
C439        N440   1.357       .  A
C439        N444   1.364       .  A
C439       C3110   1.471       .  S
N440        C441   1.352       .  A
C441        N442   1.352       .  A
C441       C4390   1.473       .  S
N442        C443   1.356       .  A
C443        N444   1.362       .  A
C443       C3174   1.480       .  S
C445        N446   1.361       .  A
C445        N450   1.360       .  A
C445       C3037   1.483       .  S
N446        C447   1.358       .  A
C447        N448   1.354       .  A
C447       C3069   1.472       .  S
N448        C449   1.352       .  A
C449        N450   1.354       .  A
C449       C4486   1.467       .  S
C451        N452   1.355       .  A
C451        N456   1.360       .  A
C451       C3005   1.478       .  S
N452        C453   1.354       .  A
C453        N454   1.355       .  A
C453       C4710   1.472       .  S
N454        C455   1.359       .  A
C455        N456   1.359       .  A
C455       C3078   1.486       .  S
C457        N458   1.360       .  A
C457        N462   1.360       .  A
C457       C2950   1.493       .  S
N458        C459   1.355       .  A
C459        N460   1.354       .  A
C459       C4573   1.469       .  S
N460        C461   1.356       .  A
C461        N462   1.359       .  A
C461       C2973   1.474       .  S
C463        N464   1.360       .  A
C463        N468   1.362       .  A
C463       C2909   1.482       .  S
N464        C465   1.355       .  A
C465        N466   1.354       .  A
C465       C4870   1.477       .  S
N466        C467   1.356       .  A
C467        N468   1.362       .  A
C467       C2982   1.486       .  S
C469        N470   1.355       .  A
C469        N474   1.364       .  A
C469       C2845   1.480       .  S
N470        C471   1.350       .  A
C471        N472   1.350       .  A
C471       C4445   1.461       .  S
N472        C473   1.357       .  A
C473        N474   1.361       .  A
C473       C2886   1.493       .  S
C475        N476   1.361       .  A
C475        N480   1.357       .  A
C475       C2813   1.475       .  S
N476        C477   1.359       .  A
C477        N478   1.353       .  A
C477       C2877   1.466       .  S
N478        C479   1.350       .  A
C479        N480   1.354       .  A
C479       C4742   1.467       .  S
C481        N482   1.361       .  A
C481        N486   1.359       .  A
C481       C2749   1.485       .  S
N482        C483   1.360       .  A
C483        N484   1.354       .  A
C483       C2781   1.480       .  S
N484        C485   1.351       .  A
C485        N486   1.355       .  A
C485       C4614   1.465       .  S
C487        N488   1.355       .  A
C487        N492   1.359       .  A
C487       C2717   1.486       .  S
N488        C489   1.354       .  A
C489        N490   1.357       .  A
C489       C2790   1.466       .  S
N490        C491   1.356       .  A
C491        N492   1.354       .  A
C491       C4838   1.476       .  S
C493        N494   1.358       .  A
C493        N498   1.357       .  A
C493       C2653   1.482       .  S
N494        C495   1.358       .  A
C495        N496   1.360       .  A
C495       C4198   1.479       .  S
N496        C497   1.359       .  A
C497        N498   1.358       .  A
C497       C2685   1.486       .  S
C499        N500   1.361       .  A
C499        N504   1.357       .  A
C499       C2621   1.486       .  S
N500        C501   1.358       .  A
C501        N502   1.359       .  A
C501       C2694   1.475       .  S
N502        C503   1.357       .  A
C503        N504   1.354       .  A
C503       C4358   1.472       .  S
C505        N506   1.358       .  A
C505        N510   1.360       .  A
C505       C2557   1.482       .  S
N506        C507   1.356       .  A
C507        N508   1.356       .  A
C507       C4221   1.474       .  S
N508        C509   1.359       .  A
C509        N510   1.360       .  A
C509       C2589   1.483       .  S
C511        N512   1.360       .  A
C511        N516   1.363       .  A
C511       C2525   1.477       .  S
N512        C513   1.357       .  A
C513        N514   1.353       .  A
C513       C4326   1.476       .  S
N514        C515   1.354       .  A
C515        N516   1.361       .  A
C515       C2598   1.481       .  S
C517        N518   1.361       .  A
C517        N522   1.362       .  A
C517       C2461   1.482       .  S
N518        C519   1.357       .  A
C519        N520   1.355       .  A
C519       C2493   1.475       .  S
N520        C521   1.352       .  A
C521        N522   1.357       .  A
C521       C4541   1.477       .  S
C523        N524   1.362       .  A
C523        N528   1.359       .  A
C523       C2429   1.503       .  S
N524        C525   1.364       .  A
C525        N526   1.355       .  A
C525       C2502   1.489       .  S
N526        C527   1.351       .  A
C527        N528   1.351       .  A
C527       C4797   1.467       .  S
C529        N530   1.364       .  A
C529        N534   1.360       .  A
C529       C2365   1.482       .  S
N530        C531   1.362       .  A
C531        N532   1.355       .  A
C531       C2397   1.484       .  S
N532        C533   1.350       .  A
C533        N534   1.355       .  A
C533       C4413   1.471       .  S
C535        N536   1.361       .  A
C535        N540   1.363       .  A
C535       C2333   1.505       .  S
N536        C537   1.355       .  A
C537        N538   1.355       .  A
C537       C4678   1.471       .  S
N538        C539   1.357       .  A
C539        N540   1.362       .  A
C539       C2406   1.491       .  S
C541        N542   1.357       .  A
C541        N546   1.362       .  A
C541       C2269   1.479       .  S
N542        C543   1.355       .  A
C543        N544   1.357       .  A
C543       C4166   1.478       .  S
N544        C545   1.360       .  A
C545        N546   1.362       .  A
C545       C2301   1.482       .  S
C547        N548   1.357       .  A
C547        N552   1.357       .  A
C547       C2237   1.481       .  S
N548        C549   1.358       .  A
C549        N550   1.359       .  A
C549       C2310   1.482       .  S
N550        C551   1.360       .  A
C551        N552   1.355       .  A
C551       C4294   1.475       .  S
C553        N554   1.355       .  A
C553        N558   1.356       .  A
C553       C2173   1.472       .  S
N554        C555   1.356       .  A
C555        N556   1.358       .  A
C555       C2205   1.479       .  S
N556        C557   1.358       .  A
C557        N558   1.356       .  A
C557       C3878   1.472       .  S
C559        N560   1.355       .  A
C559        N564   1.361       .  A
C559       C2141   1.466       .  S
N560        C561   1.352       .  A
C561        N562   1.352       .  A
C561       C4125   1.460       .  S
N562        C563   1.355       .  A
C563        N564   1.360       .  A
C563       C2214   1.472       .  S
C565        N566   1.360       .  A
C565        N570   1.357       .  A
C565       C2077   1.484       .  S
N566        C567   1.362       .  A
C567        N568   1.359       .  A
C567       C2109   1.485       .  S
N568        C569   1.356       .  A
C569        N570   1.353       .  A
C569       C3750   1.472       .  S
C571        N572   1.357       .  A
C571        N576   1.364       .  A
C571       C2045   1.472       .  S
N572        C573   1.353       .  A
C573        N574   1.352       .  A
C573       C3997   1.463       .  S
N574        C575   1.354       .  A
C575        N576   1.364       .  A
C575       C2118   1.484       .  S
C577        N578   1.363       .  A
C577        N582   1.358       .  A
C577       C1981   1.490       .  S
N578        C579   1.360       .  A
C579        N580   1.353       .  A
C579       C2013   1.480       .  S
N580        C581   1.351       .  A
C581        N582   1.355       .  A
C581       C3718   1.465       .  S
C583        N584   1.361       .  A
C583        N588   1.364       .  A
C583       C1949   1.488       .  S
N584        C585   1.353       .  A
C585        N586   1.350       .  A
C585       C3942   1.467       .  S
N586        C587   1.355       .  A
C587        N588   1.361       .  A
C587       C2022   1.479       .  S
C589        N590   1.366       .  A
C589        N594   1.360       .  A
C589       C1885   1.481       .  S
N590        C591   1.364       .  A
C591        N592   1.357       .  A
C591       C1917   1.496       .  S
N592        C593   1.351       .  A
C593        N594   1.353       .  A
C593       C3686   1.477       .  S
C595        N596   1.361       .  A
C595        N600   1.361       .  A
C595       C1853   1.499       .  S
N596        C597   1.354       .  A
C597        N598   1.355       .  A
C597       C3965   1.472       .  S
N598        C599   1.357       .  A
C599        N600   1.361       .  A
C599       C1926   1.487       .  S
C601        N602   1.359       .  A
C601        N606   1.362       .  A
C601       C1789   1.492       .  S
N602        C603   1.360       .  A
C603        N604   1.355       .  A
C603       C1821   1.484       .  S
N604        C605   1.355       .  A
C605        N606   1.357       .  A
C605       C3846   1.476       .  S
C607        N608   1.363       .  A
C607        N612   1.359       .  A
C607       C1757   1.492       .  S
N608        C609   1.358       .  A
C609        N610   1.354       .  A
C609       C1830   1.466       .  S
N610        C611   1.351       .  A
C611        N612   1.355       .  A
C611       C4070   1.471       .  S
C613        N614   1.361       .  A
C613        N618   1.359       .  A
C613       C1693   1.484       .  S
N614        C615   1.360       .  A
C615        N616   1.355       .  A
C615       C1725   1.483       .  S
N616        C617   1.353       .  A
C617        N618   1.354       .  A
C617       C3462   1.472       .  S
C619        N620   1.359       .  A
C619        N624   1.359       .  A
C619       C1661   1.473       .  S
N620        C621   1.357       .  A
C621        N622   1.354       .  A
C621       C3558   1.470       .  S
N622        C623   1.356       .  A
C623        N624   1.358       .  A
C623       C1734   1.474       .  S
C625        N626   1.363       .  A
C625        N630   1.362       .  A
C625       C1597   1.491       .  S
N626        C627   1.359       .  A
C627        N628   1.356       .  A
C627       C3430   1.483       .  S
N628        C629   1.357       .  A
C629        N630   1.360       .  A
C629       C1629   1.484       .  S
C631        N632   1.361       .  A
C631        N636   1.358       .  A
C631       C1565   1.488       .  S
N632        C633   1.355       .  A
C633        N634   1.356       .  A
C633       C3581   1.474       .  S
N634        C635   1.356       .  A
C635        N636   1.356       .  A
C635       C1638   1.473       .  S
C637        N638   1.360       .  A
C637        N642   1.358       .  A
C637       C1501   1.478       .  S
N638        C639   1.359       .  A
C639        N640   1.352       .  A
C639       C1533   1.472       .  S
N640        C641   1.351       .  A
C641        N642   1.353       .  A
C641       C3782   1.466       .  S
C643        N644   1.359       .  A
C643        N648   1.358       .  A
C643       C1469   1.478       .  S
N644        C645   1.355       .  A
C645        N646   1.356       .  A
C645       C4029   1.469       .  S
N646        C647   1.359       .  A
C647        N648   1.356       .  A
C647       C1542   1.476       .  S
C649        N650   1.358       .  A
C649        N654   1.366       .  A
C649       C1405   1.483       .  S
N650        C651   1.354       .  A
C651        N652   1.350       .  A
C651       C3389   1.466       .  S
N652        C653   1.354       .  A
C653        N654   1.365       .  A
C653       C1437   1.485       .  S
C655        N656   1.357       .  A
C655        N660   1.358       .  A
C655       C1373   1.482       .  S
N656        C657   1.356       .  A
C657        N658   1.357       .  A
C657       C3526   1.475       .  S
N658        C659   1.357       .  A
C659        N660   1.357       .  A
C659       C1446   1.478       .  S
C661        N662   1.361       .  A
C661        N666   1.356       .  A
C661       C1309   1.480       .  S
N662        C663   1.357       .  A
C663        N664   1.353       .  A
C663       C1341   1.466       .  S
N664        C665   1.351       .  A
C665        N666   1.352       .  A
C665       C3645   1.460       .  S
C667        N668   1.356       .  A
C667        N672   1.358       .  A
C667       C1277   1.466       .  S
N668        C669   1.352       .  A
C669        N670   1.352       .  A
C669       C3910   1.465       .  S
N670        C671   1.353       .  A
C671        N672   1.360       .  A
C671       C1350   1.479       .  S
O673       Mg675   2.136       .  S
O673       Mg681   2.154       .  S
O673        C708   1.236       .  S
C674        H713   1.081       .  S
C674        O687   1.236       .  S
C674        O711   1.270       .  A
Mg675       O704   2.157       .  S
Mg675       O719   2.317       .  S
Mg675       O715   2.258       .  S
Mg675       O686   2.302       .  S
O676       Mg718   2.151       .  S
O676       Mg701   2.139       .  S
O676        C697   1.234       .  S
O677        C708   1.270       .  A
O677       Mg701   2.300       .  S
C678       C3206   1.494       .  S
C678        O680   1.272       .  A
C678        O692   1.274       .  A
O679        C707   1.270       .  A
O679       Mg681   2.296       .  S
O680       Mg712   2.257       .  S
Mg681       O687   2.150       .  S
Mg681       O695   2.278       .  S
Mg681       O683   2.297       .  S
C682       C1574   1.499       .  S
C682        O720   1.274       .  A
C682        O688   1.271       .  A
O683        C690   1.276       .  A
H684        C697   1.081       .  S
C685        H710   1.081       .  S
C685        O699   1.235       .  S
C685        O700   1.268       .  A
O686        C709   1.270       .  A
O687       Mg701   2.151       .  S
O688       Mg718   2.298       .  S
C689       C2758   1.483       .  S
C689        O702   1.271       .  A
C689        O694   1.274       .  A
C690       C1318   1.489       .  S
C690        O717   1.268       .  A
Mg691       O698   2.140       .  S
Mg691       O699   2.159       .  S
Mg691       O692   2.314       .  S
Mg691       O693   2.295       .  S
Mg691       O720   2.260       .  S
O693        C697   1.269       .  A
O694       Mg701   2.314       .  S
O695        C714   1.273       .  A
O696        C716   1.270       .  A
O696       Mg712   2.277       .  S
O698       Mg712   2.151       .  S
O698        C709   1.236       .  S
O699       Mg718   2.139       .  S
O700       Mg712   2.291       .  S
Mg701       O717   2.249       .  S
O702       Mg718   2.254       .  S
H703        C708   1.081       .  S
O704       Mg712   2.149       .  S
O704        C707   1.236       .  S
H705        C707   1.081       .  S
H706        C709   1.081       .  S
O711       Mg718   2.301       .  S
C714       C2566   1.486       .  S
C714        O719   1.276       .  A
O715        C716   1.272       .  A
C716       C1245   1.471       .  S
O721       Mg723   2.137       .  S
O721       Mg729   2.152       .  S
O721        C756   1.236       .  S
C722        H761   1.081       .  S
C722        O735   1.236       .  S
C722        O759   1.270       .  A
Mg723       O752   2.154       .  S
Mg723       O767   2.313       .  S
Mg723       O763   2.279       .  S
Mg723       O734   2.304       .  S
O724       Mg766   2.157       .  S
O724       Mg749   2.158       .  S
O724        C745   1.236       .  S
O725        C756   1.270       .  A
O725       Mg749   2.295       .  S
C726       C3142   1.484       .  S
C726        O728   1.271       .  A
C726        O740   1.275       .  A
O727        C755   1.270       .  A
O727       Mg729   2.295       .  S
O728       Mg760   2.269       .  S
Mg729       O735   2.146       .  S
Mg729       O743   2.277       .  S
Mg729       O731   2.295       .  S
C730       C1286   1.480       .  S
C730        O768   1.272       .  A
C730        O736   1.275       .  A
O731        C738   1.274       .  A
H732        C745   1.081       .  S
C733        H758   1.081       .  S
C733        O747   1.236       .  S
C733        O748   1.270       .  A
O734        C757   1.272       .  A
O735       Mg749   2.153       .  S
O736       Mg766   2.308       .  S
C737       C3334   1.476       .  S
C737        O750   1.272       .  A
C737        O742   1.274       .  A
C738       C1382   1.480       .  S
C738        O765   1.273       .  A
Mg739       O746   2.142       .  S
Mg739       O747   2.157       .  S
Mg739       O740   2.317       .  S
Mg739       O741   2.303       .  S
Mg739       O768   2.260       .  S
O741        C745   1.270       .  A
O742       Mg749   2.300       .  S
O743        C762   1.271       .  A
O744        C764   1.270       .  A
O744       Mg760   2.288       .  S
O746       Mg760   2.151       .  S
O746        C757   1.237       .  S
O747       Mg766   2.144       .  S
O748       Mg760   2.300       .  S
Mg749       O765   2.285       .  S
O750       Mg766   2.264       .  S
H751        C756   1.081       .  S
O752       Mg760   2.142       .  S
O752        C755   1.236       .  S
H753        C755   1.081       .  S
H754        C757   1.081       .  S
O759       Mg766   2.299       .  S
C762       C3229   1.504       .  S
C762        O767   1.278       .  A
O763        C764   1.274       .  A
C764       C1478   1.496       .  S
O769       Mg771   2.148       .  S
O769       Mg777   2.154       .  S
O769        C804   1.236       .  S
C770        H809   1.081       .  S
C770        O783   1.236       .  S
C770        O807   1.269       .  A
Mg771       O800   2.160       .  S
Mg771       O815   2.307       .  S
Mg771       O811   2.289       .  S
Mg771       O782   2.298       .  S
O772       Mg814   2.158       .  S
O772       Mg797   2.143       .  S
O772        C793   1.235       .  S
O773        C804   1.269       .  A
O773       Mg797   2.294       .  S
C774       C3101   1.478       .  S
C774        O776   1.272       .  A
C774        O788   1.274       .  A
O775        C803   1.271       .  A
O775       Mg777   2.299       .  S
O776       Mg808   2.272       .  S
Mg777       O783   2.133       .  S
Mg777       O791   2.256       .  S
Mg777       O779   2.313       .  S
C778       C1766   1.486       .  S
C778        O816   1.271       .  A
C778        O784   1.275       .  A
O779        C786   1.277       .  A
H780        C793   1.081       .  S
C781        H806   1.081       .  S
C781        O795   1.236       .  S
C781        O796   1.270       .  A
O782        C805   1.270       .  A
O783       Mg797   2.155       .  S
O784       Mg814   2.299       .  S
C785       C3046   1.483       .  S
C785        O798   1.270       .  A
C785        O790   1.276       .  A
C786       C1414   1.489       .  S
C786        O813   1.273       .  A
Mg787       O794   2.141       .  S
Mg787       O795   2.159       .  S
Mg787       O788   2.299       .  S
Mg787       O789   2.294       .  S
Mg787       O816   2.268       .  S
O789        C793   1.269       .  A
O790       Mg797   2.303       .  S
O791        C810   1.270       .  A
O792        C812   1.272       .  A
O792       Mg808   2.292       .  S
O794       Mg808   2.158       .  S
O794        C805   1.236       .  S
O795       Mg814   2.146       .  S
O796       Mg808   2.297       .  S
Mg797       O813   2.275       .  S
O798       Mg814   2.254       .  S
H799        C804   1.081       .  S
O800       Mg808   2.145       .  S
O800        C803   1.237       .  S
H801        C803   1.081       .  S
H802        C805   1.081       .  S
O807       Mg814   2.291       .  S
C810       C2941   1.495       .  S
C810        O815   1.277       .  A
O811        C812   1.275       .  A
C812       C1862   1.484       .  S
O817       Mg819   2.146       .  S
O817       Mg825   2.163       .  S
O817        C852   1.236       .  S
C818        H857   1.081       .  S
C818        O831   1.235       .  S
C818        O855   1.270       .  A
Mg819       O848   2.150       .  S
Mg819       O863   2.285       .  S
Mg819       O859   2.257       .  S
Mg819       O830   2.302       .  S
O820       Mg862   2.160       .  S
O820       Mg845   2.154       .  S
O820        C841   1.237       .  S
O821        C852   1.271       .  A
O821       Mg845   2.305       .  S
C822       C2854   1.492       .  S
C822        O824   1.272       .  A
C822        O836   1.274       .  A
O823        C851   1.268       .  A
O823       Mg825   2.294       .  S
O824       Mg856   2.260       .  S
Mg825       O831   2.159       .  S
Mg825       O839   2.298       .  S
Mg825       O827   2.277       .  S
C826       C1670   1.475       .  S
C826        O864   1.273       .  A
C826        O832   1.275       .  A
O827        C834   1.271       .  A
H828        C841   1.081       .  S
C829        H854   1.081       .  S
C829        O843   1.235       .  S
C829        O844   1.269       .  A
O830        C853   1.270       .  A
O831       Mg845   2.164       .  S
O832       Mg862   2.307       .  S
C833       C3293   1.495       .  S
C833        O846   1.273       .  A
C833        O838   1.279       .  A
C834       C1958   1.476       .  S
C834        O861   1.274       .  A
Mg835       O842   2.149       .  S
Mg835       O843   2.157       .  S
Mg835       O836   2.309       .  S
Mg835       O837   2.301       .  S
Mg835       O864   2.278       .  S
O837        C841   1.271       .  A
O838       Mg845   2.329       .  S
O839        C858   1.275       .  A
O840        C860   1.272       .  A
O840       Mg856   2.298       .  S
O842       Mg856   2.157       .  S
O842        C853   1.236       .  S
O843       Mg862   2.149       .  S
O844       Mg856   2.297       .  S
Mg845       O861   2.278       .  S
O846       Mg862   2.280       .  S
H847        C852   1.081       .  S
O848       Mg856   2.140       .  S
O848        C851   1.234       .  S
H849        C851   1.081       .  S
H850        C853   1.081       .  S
O855       Mg862   2.297       .  S
C858       C2662   1.495       .  S
C858        O863   1.269       .  A
O859        C860   1.270       .  A
C860       C1510   1.489       .  S
C865        N866   1.358       .  A
C865        N870   1.363       .  A
C865       C1181   1.490       .  S
N866        C867   1.357       .  A
C867        N868   1.354       .  A
C867       C1213   1.476       .  S
N868        C869   1.354       .  A
C869        N870   1.357       .  A
C869       C3814   1.472       .  S
C871        N872   1.360       .  A
C871        N876   1.357       .  A
C871       C1254   1.479       .  S
N872        C873   1.359       .  A
C873        N874   1.357       .  A
C873       C1222   1.476       .  S
N874        C875   1.353       .  A
C875        N876   1.352       .  A
C875       C4093   1.473       .  S
O877       Mg879   2.146       .  S
O877       Mg885   2.164       .  S
O877        C912   1.235       .  S
C878        H917   1.081       .  S
C878        O891   1.235       .  S
C878        O915   1.268       .  A
Mg879       O908   2.159       .  S
Mg879       O923   2.275       .  S
Mg879       O919   2.279       .  S
Mg879       O890   2.294       .  S
O880       Mg922   2.153       .  S
O880       Mg905   2.134       .  S
O880        C901   1.236       .  S
O881        C912   1.269       .  A
O881       Mg905   2.295       .  S
C882       C2822   1.474       .  S
C882        O884   1.271       .  A
C882        O896   1.273       .  A
O883        C911   1.271       .  A
O883       Mg885   2.298       .  S
O884       Mg916   2.259       .  S
Mg885       O891   2.119       .  S
Mg885       O899   2.234       .  S
Mg885       O887   2.299       .  S
C886       C1190   1.470       .  S
C886        O924   1.270       .  A
C886        O892   1.272       .  A
O887        C894   1.275       .  A
H888        C901   1.081       .  S
C889        H914   1.081       .  S
C889        O903   1.237       .  S
C889        O904   1.272       .  A
O890        C913   1.268       .  A
O891       Mg905   2.149       .  S
O892       Mg922   2.286       .  S
C893       C2278   1.494       .  S
C893        O906   1.273       .  A
C893        O898   1.274       .  A
C894       C1990   1.485       .  S
C894        O921   1.270       .  A
Mg895       O902   2.133       .  S
Mg895       O903   2.151       .  S
Mg895       O896   2.297       .  S
Mg895       O897   2.296       .  S
Mg895       O924   2.255       .  S
O897        C901   1.270       .  A
O898       Mg905   2.290       .  S
O899        C918   1.266       .  A
O900        C920   1.275       .  A
O900       Mg916   2.319       .  S
O902       Mg916   2.143       .  S
O902        C913   1.234       .  S
O903       Mg922   2.161       .  S
O904       Mg916   2.309       .  S
Mg905       O921   2.264       .  S
O906       Mg922   2.283       .  S
H907        C912   1.081       .  S
O908       Mg916   2.140       .  S
O908        C911   1.237       .  S
H909        C911   1.081       .  S
H910        C913   1.081       .  S
O915       Mg922   2.289       .  S
C918       C2726   1.478       .  S
C918        O923   1.274       .  A
O919        C920   1.273       .  A
C920       C1158   1.481       .  S
O925       Mg927   2.147       .  S
O925       Mg933   2.151       .  S
O925        C960   1.237       .  S
C926        H965   1.081       .  S
C926        O939   1.235       .  S
C926        O963   1.270       .  A
Mg927       O956   2.154       .  S
Mg927       O971   2.312       .  S
Mg927       O967   2.254       .  S
Mg927       O938   2.301       .  S
O928       Mg970   2.155       .  S
O928       Mg953   2.131       .  S
O928        C949   1.235       .  S
O929        C960   1.271       .  A
O929       Mg953   2.302       .  S
C930       C2470   1.491       .  S
C930        O932   1.275       .  A
C930        O944   1.270       .  A
O931        C959   1.270       .  A
O931       Mg933   2.301       .  S
O932       Mg964   2.284       .  S
Mg933       O939   2.144       .  S
Mg933       O947   2.254       .  S
Mg933       O935   2.290       .  S
C934       C1606   1.502       .  S
C934        O972   1.273       .  A
C934        O940   1.276       .  A
O935        C942   1.271       .  A
H936        C949   1.081       .  S
C937        H962   1.081       .  S
C937        O951   1.237       .  S
C937        O952   1.272       .  A
O938        C961   1.269       .  A
O939       Mg953   2.153       .  S
O940       Mg970   2.325       .  S
C941       C3014   1.496       .  S
C941        O954   1.276       .  A
C941        O946   1.273       .  A
C942       C2150   1.484       .  S
C942        O969   1.272       .  A
Mg943       O950   2.154       .  S
Mg943       O951   2.152       .  S
Mg943       O944   2.279       .  S
Mg943       O945   2.289       .  S
Mg943       O972   2.266       .  S
O945        C949   1.269       .  A
O946       Mg953   2.299       .  S
O947        C966   1.269       .  A
O948        C968   1.278       .  A
O948       Mg964   2.334       .  S
O950       Mg964   2.153       .  S
O950        C961   1.235       .  S
O951       Mg970   2.150       .  S
O952       Mg964   2.306       .  S
Mg953       O969   2.261       .  S
O954       Mg970   2.286       .  S
H955        C960   1.081       .  S
O956       Mg964   2.153       .  S
O956        C959   1.236       .  S
H957        C959   1.081       .  S
H958        C961   1.081       .  S
O963       Mg970   2.300       .  S
C966       C2534   1.473       .  S
C966        O971   1.274       .  A
O967        C968   1.271       .  A
C968       C1894   1.477       .  S
O973       Mg975   2.142       .  S
O973       Mg981   2.165       .  S
O973       C1008   1.236       .  S
C974       H1013   1.081       .  S
C974        O987   1.234       .  S
C974       O1011   1.269       .  A
Mg975      O1004   2.142       .  S
Mg975      O1019   2.288       .  S
Mg975      O1015   2.278       .  S
Mg975       O986   2.306       .  S
O976      Mg1018   2.159       .  S
O976      Mg1001   2.151       .  S
O976        C997   1.235       .  S
O977       C1008   1.270       .  A
O977      Mg1001   2.296       .  S
C978       C2374   1.484       .  S
C978        O980   1.268       .  A
C978        O992   1.276       .  A
O979       C1007   1.268       .  A
O979       Mg981   2.288       .  S
O980      Mg1012   2.242       .  S
Mg981       O987   2.151       .  S
Mg981       O995   2.289       .  S
Mg981       O983   2.298       .  S
C982       C1798   1.483       .  S
C982       O1020   1.273       .  A
C982        O988   1.272       .  A
O983        C990   1.274       .  A
H984        C997   1.081       .  S
C985       H1010   1.081       .  S
C985        O999   1.236       .  S
C985       O1000   1.270       .  A
O986       C1009   1.272       .  A
O987      Mg1001   2.158       .  S
O988      Mg1018   2.299       .  S
C989       C2630   1.482       .  S
C989       O1002   1.270       .  A
C989        O994   1.274       .  A
C990       C2054   1.477       .  S
C990       O1017   1.272       .  A
Mg991       O998   2.152       .  S
Mg991       O999   2.153       .  S
Mg991       O992   2.313       .  S
Mg991       O993   2.305       .  S
Mg991      O1020   2.275       .  S
O993        C997   1.270       .  A
O994      Mg1001   2.306       .  S
O995       C1014   1.274       .  A
O996       C1016   1.271       .  A
O996      Mg1012   2.294       .  S
O998      Mg1012   2.155       .  S
O998       C1009   1.237       .  S
O999      Mg1018   2.139       .  S
O1000     Mg1012   2.297       .  S
Mg1001     O1017   2.262       .  S
O1002     Mg1018   2.247       .  S
H1003      C1008   1.081       .  S
O1004     Mg1012   2.124       .  S
O1004      C1007   1.235       .  S
H1005      C1007   1.081       .  S
H1006      C1009   1.081       .  S
O1011     Mg1018   2.297       .  S
C1014      C2918   1.491       .  S
C1014      O1019   1.275       .  A
O1015      C1016   1.273       .  A
C1016      C1702   1.494       .  S
C1021      N1022   1.360       .  A
C1021      N1026   1.358       .  A
C1021      C1094   1.477       .  S
N1022      C1023   1.356       .  A
C1023      N1024   1.358       .  A
C1023      C1117   1.486       .  S
N1024      C1025   1.355       .  A
C1025      N1026   1.356       .  A
C1025      C3494   1.469       .  S
C1027      N1028   1.363       .  A
C1027      N1032   1.359       .  A
C1027      C1149   1.486       .  S
N1028      C1029   1.361       .  A
C1029      N1030   1.357       .  A
C1029      C1126   1.482       .  S
N1030      C1031   1.357       .  A
C1031      N1032   1.357       .  A
C1031      C3622   1.478       .  S
O1033     Mg1035   2.131       .  S
O1033     Mg1041   2.158       .  S
O1033      C1068   1.235       .  S
C1034      H1073   1.081       .  S
C1034      O1047   1.236       .  S
C1034      O1071   1.271       .  A
Mg1035     O1064   2.157       .  S
Mg1035     O1079   2.285       .  S
Mg1035     O1075   2.262       .  S
Mg1035     O1046   2.291       .  S
O1036     Mg1078   2.157       .  S
O1036     Mg1061   2.154       .  S
O1036      C1057   1.235       .  S
O1037      C1068   1.269       .  A
O1037     Mg1061   2.294       .  S
C1038      C1085   1.475       .  S
C1038      O1040   1.269       .  A
C1038      O1052   1.272       .  A
O1039      C1067   1.267       .  A
O1039     Mg1041   2.288       .  S
O1040     Mg1072   2.234       .  S
Mg1041     O1047   2.147       .  S
Mg1041     O1055   2.265       .  S
Mg1041     O1043   2.290       .  S
C1042      C2342   1.495       .  S
C1042      O1080   1.273       .  A
C1042      O1048   1.275       .  A
O1043      C1050   1.271       .  A
H1044      C1057   1.081       .  S
C1045      H1070   1.081       .  S
C1045      O1059   1.235       .  S
C1045      O1060   1.269       .  A
O1046      C1069   1.268       .  A
O1047     Mg1061   2.155       .  S
O1048     Mg1078   2.319       .  S
C1049      C2182   1.473       .  S
C1049      O1062   1.270       .  A
C1049      O1054   1.272       .  A
C1050      C2246   1.495       .  S
C1050      O1077   1.275       .  A
Mg1051     O1058   2.140       .  S
Mg1051     O1059   2.149       .  S
Mg1051     O1052   2.289       .  S
Mg1051     O1053   2.300       .  S
Mg1051     O1080   2.269       .  S
O1053      C1057   1.269       .  A
O1054     Mg1061   2.287       .  S
O1055      C1074   1.271       .  A
O1056      C1076   1.270       .  A
O1056     Mg1072   2.280       .  S
O1058     Mg1072   2.162       .  S
O1058      C1069   1.235       .  S
O1059     Mg1078   2.123       .  S
O1060     Mg1072   2.291       .  S
Mg1061     O1077   2.282       .  S
O1062     Mg1078   2.240       .  S
H1063      C1068   1.081       .  S
O1064     Mg1072   2.123       .  S
O1064      C1067   1.234       .  S
H1065      C1067   1.081       .  S
H1066      C1069   1.081       .  S
O1071     Mg1078   2.303       .  S
C1074      C2086   1.479       .  S
C1074      O1079   1.274       .  A
O1075      C1076   1.272       .  A
C1076      C2438   1.490       .  S
C1081      C1082   1.401       .  A
C1081      C1086   1.405       .  A
C1081      H1091   1.083       .  S
C1082      C1083   1.414       .  A
C1082      C1087   1.477       .  S
C1083      C1084   1.403       .  A
C1083      C1088   1.521       .  S
C1084      C1085   1.404       .  A
C1084      H1089   1.083       .  S
C1085      C1086   1.420       .  A
C1086      C1090   1.522       .  S
C1087      C1092   1.414       .  A
C1087      C1096   1.401       .  A
C1088      F1104   1.381       .  S
C1088      F1105   1.381       .  S
C1088      F1106   1.385       .  S
C1090      F1101   1.384       .  S
C1090      F1102   1.383       .  S
C1090      F1103   1.384       .  S
C1092      C1093   1.405       .  A
C1092      C1097   1.520       .  S
C1093      C1094   1.405       .  A
C1093      H1098   1.083       .  S
C1094      C1095   1.418       .  A
C1095      C1096   1.403       .  A
C1095      C1099   1.519       .  S
C1096      H1100   1.083       .  S
C1097      F1110   1.385       .  S
C1097      F1111   1.382       .  S
C1097      F1112   1.381       .  S
C1099      F1107   1.385       .  S
C1099      F1108   1.383       .  S
C1099      F1109   1.382       .  S
C1113      C1114   1.402       .  A
C1113      C1118   1.411       .  A
C1113      H1123   1.083       .  S
C1114      C1115   1.416       .  A
C1114      C1119   1.488       .  S
C1115      C1116   1.403       .  A
C1115      C1120   1.520       .  S
C1116      C1117   1.404       .  A
C1116      H1121   1.083       .  S
C1117      C1118   1.423       .  A
C1118      C1122   1.520       .  S
C1119      C1124   1.419       .  A
C1119      C1128   1.403       .  A
C1120      F1136   1.382       .  S
C1120      F1137   1.383       .  S
C1120      F1138   1.385       .  S
C1122      F1133   1.385       .  S
C1122      F1134   1.382       .  S
C1122      F1135   1.384       .  S
C1124      C1125   1.407       .  A
C1124      C1129   1.522       .  S
C1125      C1126   1.403       .  A
C1125      H1130   1.083       .  S
C1126      C1127   1.417       .  A
C1127      C1128   1.410       .  A
C1127      C1131   1.517       .  S
C1128      H1132   1.083       .  S
C1129      F1142   1.384       .  S
C1129      F1143   1.382       .  S
C1129      F1144   1.383       .  S
C1131      F1139   1.381       .  S
C1131      F1140   1.384       .  S
C1131      F1141   1.384       .  S
C1145      C1146   1.401       .  A
C1145      C1150   1.409       .  A
C1145      H1155   1.083       .  S
C1146      C1147   1.416       .  A
C1146      C1151   1.488       .  S
C1147      C1148   1.408       .  A
C1147      C1152   1.519       .  S
C1148      C1149   1.404       .  A
C1148      H1153   1.082       .  S
C1149      C1150   1.421       .  A
C1150      C1154   1.519       .  S
C1151      C1156   1.417       .  A
C1151      C1160   1.401       .  A
C1152      F1168   1.382       .  S
C1152      F1169   1.382       .  S
C1152      F1170   1.385       .  S
C1154      F1165   1.382       .  S
C1154      F1166   1.385       .  S
C1154      F1167   1.384       .  S
C1156      C1157   1.411       .  A
C1156      C1161   1.519       .  S
C1157      C1158   1.404       .  A
C1157      H1162   1.083       .  S
C1158      C1159   1.417       .  A
C1159      C1160   1.407       .  A
C1159      C1163   1.517       .  S
C1160      H1164   1.083       .  S
C1161      F1174   1.384       .  S
C1161      F1175   1.383       .  S
C1161      F1176   1.382       .  S
C1163      F1171   1.382       .  S
C1163      F1172   1.383       .  S
C1163      F1173   1.385       .  S
C1177      C1178   1.399       .  A
C1177      C1182   1.407       .  A
C1177      H1187   1.083       .  S
C1178      C1179   1.412       .  A
C1178      C1183   1.479       .  S
C1179      C1180   1.403       .  A
C1179      C1184   1.521       .  S
C1180      C1181   1.407       .  A
C1180      H1185   1.081       .  S
C1181      C1182   1.427       .  A
C1182      C1186   1.522       .  S
C1183      C1188   1.415       .  A
C1183      C1192   1.401       .  A
C1184      F1200   1.382       .  S
C1184      F1201   1.382       .  S
C1184      F1202   1.384       .  S
C1186      F1197   1.383       .  S
C1186      F1198   1.385       .  S
C1186      F1199   1.383       .  S
C1188      C1189   1.405       .  A
C1188      C1193   1.519       .  S
C1189      C1190   1.403       .  A
C1189      H1194   1.083       .  S
C1190      C1191   1.415       .  A
C1191      C1192   1.403       .  A
C1191      C1195   1.519       .  S
C1192      H1196   1.083       .  S
C1193      F1206   1.385       .  S
C1193      F1207   1.382       .  S
C1193      F1208   1.382       .  S
C1195      F1203   1.382       .  S
C1195      F1204   1.384       .  S
C1195      F1205   1.385       .  S
C1209      C1210   1.399       .  A
C1209      C1214   1.402       .  A
C1209      H1219   1.084       .  S
C1210      C1211   1.413       .  A
C1210      C1215   1.477       .  S
C1211      C1212   1.406       .  A
C1211      C1216   1.518       .  S
C1212      C1213   1.405       .  A
C1212      H1217   1.083       .  S
C1213      C1214   1.419       .  A
C1214      C1218   1.519       .  S
C1215      C1220   1.415       .  A
C1215      C1224   1.402       .  A
C1216      F1232   1.383       .  S
C1216      F1233   1.382       .  S
C1216      F1234   1.385       .  S
C1218      F1229   1.382       .  S
C1218      F1230   1.385       .  S
C1218      F1231   1.384       .  S
C1220      C1221   1.401       .  A
C1220      C1225   1.522       .  S
C1221      C1222   1.403       .  A
C1221      H1226   1.083       .  S
C1222      C1223   1.418       .  A
C1223      C1224   1.408       .  A
C1223      C1227   1.518       .  S
C1224      H1228   1.083       .  S
C1225      F1238   1.385       .  S
C1225      F1239   1.382       .  S
C1225      F1240   1.381       .  S
C1227      F1235   1.385       .  S
C1227      F1236   1.384       .  S
C1227      F1237   1.381       .  S
C1241      C1242   1.401       .  A
C1241      C1246   1.406       .  A
C1241      H1251   1.083       .  S
C1242      C1243   1.413       .  A
C1242      C1247   1.475       .  S
C1243      C1244   1.401       .  A
C1243      C1248   1.520       .  S
C1244      C1245   1.402       .  A
C1244      H1249   1.083       .  S
C1245      C1246   1.419       .  A
C1246      C1250   1.520       .  S
C1247      C1252   1.411       .  A
C1247      C1256   1.400       .  A
C1248      F1264   1.383       .  S
C1248      F1265   1.382       .  S
C1248      F1266   1.385       .  S
C1250      F1261   1.385       .  S
C1250      F1262   1.382       .  S
C1250      F1263   1.383       .  S
C1252      C1253   1.401       .  A
C1252      C1257   1.520       .  S
C1253      C1254   1.406       .  A
C1253      H1258   1.083       .  S
C1254      C1255   1.420       .  A
C1255      C1256   1.406       .  A
C1255      C1259   1.519       .  S
C1256      H1260   1.083       .  S
C1257      F1270   1.385       .  S
C1257      F1271   1.383       .  S
C1257      F1272   1.382       .  S
C1259      F1267   1.385       .  S
C1259      F1268   1.383       .  S
C1259      F1269   1.381       .  S
C1273      C1274   1.403       .  A
C1273      C1278   1.405       .  A
C1273      H1283   1.083       .  S
C1274      C1275   1.416       .  A
C1274      C1279   1.479       .  S
C1275      C1276   1.403       .  A
C1275      C1280   1.520       .  S
C1276      C1277   1.401       .  A
C1276      H1281   1.083       .  S
C1277      C1278   1.413       .  A
C1278      C1282   1.518       .  S
C1279      C1284   1.414       .  A
C1279      C1288   1.399       .  A
C1280      F1296   1.382       .  S
C1280      F1297   1.382       .  S
C1280      F1298   1.385       .  S
C1282      F1293   1.384       .  S
C1282      F1294   1.384       .  S
C1282      F1295   1.383       .  S
C1284      C1285   1.406       .  A
C1284      C1289   1.520       .  S
C1285      C1286   1.405       .  A
C1285      H1290   1.083       .  S
C1286      C1287   1.421       .  A
C1287      C1288   1.405       .  A
C1287      C1291   1.520       .  S
C1288      H1292   1.083       .  S
C1289      F1302   1.384       .  S
C1289      F1303   1.382       .  S
C1289      F1304   1.382       .  S
C1291      F1299   1.383       .  S
C1291      F1300   1.382       .  S
C1291      F1301   1.385       .  S
C1305      C1306   1.398       .  A
C1305      C1310   1.402       .  A
C1305      H1315   1.084       .  S
C1306      C1307   1.413       .  A
C1306      C1311   1.474       .  S
C1307      C1308   1.403       .  A
C1307      C1312   1.520       .  S
C1308      C1309   1.406       .  A
C1308      H1313   1.083       .  S
C1309      C1310   1.422       .  A
C1310      C1314   1.520       .  S
C1311      C1316   1.410       .  A
C1311      C1320   1.398       .  A
C1312      F1328   1.382       .  S
C1312      F1329   1.382       .  S
C1312      F1330   1.385       .  S
C1314      F1325   1.385       .  S
C1314      F1326   1.383       .  S
C1314      F1327   1.382       .  S
C1316      C1317   1.403       .  A
C1316      C1321   1.521       .  S
C1317      C1318   1.411       .  A
C1317      H1322   1.082       .  S
C1318      C1319   1.426       .  A
C1319      C1320   1.405       .  A
C1319      C1323   1.521       .  S
C1320      H1324   1.083       .  S
C1321      F1334   1.385       .  S
C1321      F1335   1.382       .  S
C1321      F1336   1.382       .  S
C1323      F1331   1.385       .  S
C1323      F1332   1.383       .  S
C1323      F1333   1.383       .  S
C1337      C1338   1.400       .  A
C1337      C1342   1.401       .  A
C1337      H1347   1.083       .  S
C1338      C1339   1.415       .  A
C1338      C1343   1.474       .  S
C1339      C1340   1.405       .  A
C1339      C1344   1.520       .  S
C1340      C1341   1.401       .  A
C1340      H1345   1.083       .  S
C1341      C1342   1.416       .  A
C1342      C1346   1.521       .  S
C1343      C1348   1.413       .  A
C1343      C1352   1.398       .  A
C1344      F1360   1.382       .  S
C1344      F1361   1.382       .  S
C1344      F1362   1.384       .  S
C1346      F1357   1.385       .  S
C1346      F1358   1.382       .  S
C1346      F1359   1.383       .  S
C1348      C1349   1.405       .  A
C1348      C1353   1.519       .  S
C1349      C1350   1.407       .  A
C1349      H1354   1.083       .  S
C1350      C1351   1.422       .  A
C1351      C1352   1.401       .  A
C1351      C1355   1.522       .  S
C1352      H1356   1.084       .  S
C1353      F1366   1.385       .  S
C1353      F1367   1.382       .  S
C1353      F1368   1.382       .  S
C1355      F1363   1.382       .  S
C1355      F1364   1.383       .  S
C1355      F1365   1.385       .  S
C1369      C1370   1.399       .  A
C1369      C1374   1.404       .  A
C1369      H1379   1.084       .  S
C1370      C1371   1.415       .  A
C1370      C1375   1.479       .  S
C1371      C1372   1.406       .  A
C1371      C1376   1.521       .  S
C1372      C1373   1.408       .  A
C1372      H1377   1.083       .  S
C1373      C1374   1.420       .  A
C1374      C1378   1.519       .  S
C1375      C1380   1.414       .  A
C1375      C1384   1.401       .  A
C1376      F1392   1.382       .  S
C1376      F1393   1.381       .  S
C1376      F1394   1.385       .  S
C1378      F1389   1.382       .  S
C1378      F1390   1.385       .  S
C1378      F1391   1.384       .  S
C1380      C1381   1.406       .  A
C1380      C1385   1.519       .  S
C1381      C1382   1.404       .  A
C1381      H1386   1.083       .  S
C1382      C1383   1.419       .  A
C1383      C1384   1.406       .  A
C1383      C1387   1.517       .  S
C1384      H1388   1.083       .  S
C1385      F1398   1.385       .  S
C1385      F1399   1.382       .  S
C1385      F1400   1.381       .  S
C1387      F1395   1.382       .  S
C1387      F1396   1.383       .  S
C1387      F1397   1.385       .  S
C1401      C1402   1.400       .  A
C1401      C1406   1.408       .  A
C1401      H1411   1.083       .  S
C1402      C1403   1.418       .  A
C1402      C1407   1.487       .  S
C1403      C1404   1.410       .  A
C1403      C1408   1.520       .  S
C1404      C1405   1.404       .  A
C1404      H1409   1.083       .  S
C1405      C1406   1.420       .  A
C1406      C1410   1.520       .  S
C1407      C1412   1.413       .  A
C1407      C1416   1.403       .  A
C1408      F1424   1.382       .  S
C1408      F1425   1.382       .  S
C1408      F1426   1.384       .  S
C1410      F1421   1.385       .  S
C1410      F1422   1.382       .  S
C1410      F1423   1.383       .  S
C1412      C1413   1.407       .  A
C1412      C1417   1.519       .  S
C1413      C1414   1.407       .  A
C1413      H1418   1.083       .  S
C1414      C1415   1.421       .  A
C1415      C1416   1.409       .  A
C1415      C1419   1.519       .  S
C1416      H1420   1.083       .  S
C1417      F1430   1.385       .  S
C1417      F1431   1.382       .  S
C1417      F1432   1.381       .  S
C1419      F1427   1.385       .  S
C1419      F1428   1.384       .  S
C1419      F1429   1.382       .  S
C1433      C1434   1.397       .  A
C1433      C1438   1.401       .  A
C1433      H1443   1.084       .  S
C1434      C1435   1.417       .  A
C1434      C1439   1.479       .  S
C1435      C1436   1.408       .  A
C1435      C1440   1.518       .  S
C1436      C1437   1.406       .  A
C1436      H1441   1.084       .  S
C1437      C1438   1.423       .  A
C1438      C1442   1.518       .  S
C1439      C1444   1.413       .  A
C1439      C1448   1.402       .  A
C1440      F1456   1.383       .  S
C1440      F1457   1.382       .  S
C1440      F1458   1.384       .  S
C1442      F1453   1.385       .  S
C1442      F1454   1.383       .  S
C1442      F1455   1.383       .  S
C1444      C1445   1.404       .  A
C1444      C1449   1.518       .  S
C1445      C1446   1.405       .  A
C1445      H1450   1.083       .  S
C1446      C1447   1.418       .  A
C1447      C1448   1.407       .  A
C1447      C1451   1.519       .  S
C1448      H1452   1.083       .  S
C1449      F1462   1.384       .  S
C1449      F1463   1.382       .  S
C1449      F1464   1.383       .  S
C1451      F1459   1.383       .  S
C1451      F1460   1.383       .  S
C1451      F1461   1.385       .  S
C1465      C1466   1.403       .  A
C1465      C1470   1.407       .  A
C1465      H1475   1.083       .  S
C1466      C1467   1.416       .  A
C1466      C1471   1.485       .  S
C1467      C1468   1.403       .  A
C1467      C1472   1.519       .  S
C1468      C1469   1.403       .  A
C1468      H1473   1.083       .  S
C1469      C1470   1.418       .  A
C1470      C1474   1.520       .  S
C1471      C1476   1.414       .  A
C1471      C1480   1.398       .  A
C1472      F1488   1.381       .  S
C1472      F1489   1.382       .  S
C1472      F1490   1.385       .  S
C1474      F1485   1.385       .  S
C1474      F1486   1.382       .  S
C1474      F1487   1.384       .  S
C1476      C1477   1.408       .  A
C1476      C1481   1.520       .  S
C1477      C1478   1.410       .  A
C1477      H1482   1.082       .  S
C1478      C1479   1.429       .  A
C1479      C1480   1.406       .  A
C1479      C1483   1.523       .  S
C1480      H1484   1.083       .  S
C1481      F1494   1.384       .  S
C1481      F1495   1.382       .  S
C1481      F1496   1.383       .  S
C1483      F1491   1.385       .  S
C1483      F1492   1.384       .  S
C1483      F1493   1.383       .  S
C1497      C1498   1.402       .  A
C1497      C1502   1.407       .  A
C1497      H1507   1.083       .  S
C1498      C1499   1.414       .  A
C1498      C1503   1.479       .  S
C1499      C1500   1.402       .  A
C1499      C1504   1.521       .  S
C1500      C1501   1.404       .  A
C1500      H1505   1.081       .  S
C1501      C1502   1.418       .  A
C1502      C1506   1.519       .  S
C1503      C1508   1.414       .  A
C1503      C1512   1.396       .  A
C1504      F1520   1.382       .  S
C1504      F1521   1.382       .  S
C1504      F1522   1.385       .  S
C1506      F1517   1.384       .  S
C1506      F1518   1.383       .  S
C1506      F1519   1.384       .  S
C1508      C1509   1.407       .  A
C1508      C1513   1.520       .  S
C1509      C1510   1.409       .  A
C1509      H1514   1.083       .  S
C1510      C1511   1.427       .  A
C1511      C1512   1.404       .  A
C1511      C1515   1.522       .  S
C1512      H1516   1.083       .  S
C1513      F1526   1.384       .  S
C1513      F1527   1.382       .  S
C1513      F1528   1.382       .  S
C1515      F1523   1.385       .  S
C1515      F1524   1.384       .  S
C1515      F1525   1.383       .  S
C1529      C1530   1.401       .  A
C1529      C1534   1.407       .  A
C1529      H1539   1.083       .  S
C1530      C1531   1.415       .  A
C1530      C1535   1.477       .  S
C1531      C1532   1.402       .  A
C1531      C1536   1.522       .  S
C1532      C1533   1.403       .  A
C1532      H1537   1.084       .  S
C1533      C1534   1.417       .  A
C1534      C1538   1.519       .  S
C1535      C1540   1.414       .  A
C1535      C1544   1.399       .  A
C1536      F1552   1.382       .  S
C1536      F1553   1.383       .  S
C1536      F1554   1.384       .  S
C1538      F1549   1.384       .  S
C1538      F1550   1.382       .  S
C1538      F1551   1.384       .  S
C1540      C1541   1.404       .  A
C1540      C1545   1.520       .  S
C1541      C1542   1.403       .  A
C1541      H1546   1.083       .  S
C1542      C1543   1.419       .  A
C1543      C1544   1.405       .  A
C1543      C1547   1.518       .  S
C1544      H1548   1.083       .  S
C1545      F1558   1.385       .  S
C1545      F1559   1.382       .  S
C1545      F1560   1.383       .  S
C1547      F1555   1.382       .  S
C1547      F1556   1.383       .  S
C1547      F1557   1.385       .  S
C1561      C1562   1.401       .  A
C1561      C1566   1.409       .  A
C1561      H1571   1.083       .  S
C1562      C1563   1.412       .  A
C1562      C1567   1.481       .  S
C1563      C1564   1.402       .  A
C1563      C1568   1.521       .  S
C1564      C1565   1.407       .  A
C1564      H1569   1.082       .  S
C1565      C1566   1.425       .  A
C1566      C1570   1.521       .  S
C1567      C1572   1.411       .  A
C1567      C1576   1.398       .  A
C1568      F1584   1.382       .  S
C1568      F1585   1.382       .  S
C1568      F1586   1.384       .  S
C1570      F1581   1.385       .  S
C1570      F1582   1.383       .  S
C1570      F1583   1.384       .  S
C1572      C1573   1.403       .  A
C1572      C1577   1.521       .  S
C1573      C1574   1.411       .  A
C1573      H1578   1.082       .  S
C1574      C1575   1.431       .  A
C1575      C1576   1.409       .  A
C1575      C1579   1.522       .  S
C1576      H1580   1.083       .  S
C1577      F1590   1.384       .  S
C1577      F1591   1.382       .  S
C1577      F1592   1.382       .  S
C1579      F1587   1.385       .  S
C1579      F1588   1.383       .  S
C1579      F1589   1.383       .  S
C1593      C1594   1.402       .  A
C1593      C1598   1.410       .  A
C1593      H1603   1.083       .  S
C1594      C1595   1.413       .  A
C1594      C1599   1.488       .  S
C1595      C1596   1.409       .  A
C1595      C1600   1.518       .  S
C1596      C1597   1.407       .  A
C1596      H1601   1.082       .  S
C1597      C1598   1.423       .  A
C1598      C1602   1.520       .  S
C1599      C1604   1.416       .  A
C1599      C1608   1.401       .  A
C1600      F1616   1.382       .  S
C1600      F1617   1.383       .  S
C1600      F1618   1.384       .  S
C1602      F1613   1.384       .  S
C1602      F1614   1.382       .  S
C1602      F1615   1.384       .  S
C1604      C1605   1.407       .  A
C1604      C1609   1.520       .  S
C1605      C1606   1.411       .  A
C1605      H1610   1.084       .  S
C1606      C1607   1.428       .  A
C1607      C1608   1.411       .  A
C1607      C1611   1.521       .  S
C1608      H1612   1.083       .  S
C1609      F1622   1.384       .  S
C1609      F1623   1.383       .  S
C1609      F1624   1.381       .  S
C1611      F1619   1.385       .  S
C1611      F1620   1.383       .  S
C1611      F1621   1.383       .  S
C1625      C1626   1.400       .  A
C1625      C1630   1.400       .  A
C1625      H1635   1.085       .  S
C1626      C1627   1.419       .  A
C1626      C1631   1.485       .  S
C1627      C1628   1.412       .  A
C1627      C1632   1.521       .  S
C1628      C1629   1.407       .  A
C1628      H1633   1.083       .  S
C1629      C1630   1.419       .  A
C1630      C1634   1.518       .  S
C1631      C1636   1.419       .  A
C1631      C1640   1.403       .  A
C1632      F1648   1.381       .  S
C1632      F1649   1.382       .  S
C1632      F1650   1.384       .  S
C1634      F1645   1.385       .  S
C1634      F1646   1.383       .  S
C1634      F1647   1.383       .  S
C1636      C1637   1.408       .  A
C1636      C1641   1.519       .  S
C1637      C1638   1.402       .  A
C1637      H1642   1.083       .  S
C1638      C1639   1.413       .  A
C1639      C1640   1.403       .  A
C1639      C1643   1.518       .  S
C1640      H1644   1.083       .  S
C1641      F1654   1.385       .  S
C1641      F1655   1.381       .  S
C1641      F1656   1.382       .  S
C1643      F1651   1.382       .  S
C1643      F1652   1.384       .  S
C1643      F1653   1.385       .  S
C1657      C1658   1.402       .  A
C1657      C1662   1.405       .  A
C1657      H1667   1.083       .  S
C1658      C1659   1.418       .  A
C1658      C1663   1.485       .  S
C1659      C1660   1.408       .  A
C1659      C1664   1.519       .  S
C1660      C1661   1.402       .  A
C1660      H1665   1.083       .  S
C1661      C1662   1.415       .  A
C1662      C1666   1.518       .  S
C1663      C1668   1.417       .  A
C1663      C1672   1.401       .  A
C1664      F1680   1.382       .  S
C1664      F1681   1.382       .  S
C1664      F1682   1.385       .  S
C1666      F1677   1.382       .  S
C1666      F1678   1.384       .  S
C1666      F1679   1.383       .  S
C1668      C1669   1.410       .  A
C1668      C1673   1.519       .  S
C1669      C1670   1.401       .  A
C1669      H1674   1.083       .  S
C1670      C1671   1.416       .  A
C1671      C1672   1.406       .  A
C1671      C1675   1.518       .  S
C1672      H1676   1.083       .  S
C1673      F1686   1.384       .  S
C1673      F1687   1.383       .  S
C1673      F1688   1.382       .  S
C1675      F1683   1.384       .  S
C1675      F1684   1.383       .  S
C1675      F1685   1.385       .  S
C1689      C1690   1.400       .  A
C1689      C1694   1.407       .  A
C1689      H1699   1.083       .  S
C1690      C1691   1.413       .  A
C1690      C1695   1.479       .  S
C1691      C1692   1.404       .  A
C1691      C1696   1.521       .  S
C1692      C1693   1.407       .  A
C1692      H1697   1.082       .  S
C1693      C1694   1.421       .  A
C1694      C1698   1.519       .  S
C1695      C1700   1.413       .  A
C1695      C1704   1.394       .  A
C1696      F1712   1.382       .  S
C1696      F1713   1.382       .  S
C1696      F1714   1.385       .  S
C1698      F1709   1.384       .  S
C1698      F1710   1.383       .  S
C1698      F1711   1.383       .  S
C1700      C1701   1.409       .  A
C1700      C1705   1.519       .  S
C1701      C1702   1.409       .  A
C1701      H1706   1.083       .  S
C1702      C1703   1.428       .  A
C1703      C1704   1.404       .  A
C1703      C1707   1.518       .  S
C1704      H1708   1.083       .  S
C1705      F1718   1.384       .  S
C1705      F1719   1.383       .  S
C1705      F1720   1.382       .  S
C1707      F1715   1.385       .  S
C1707      F1716   1.384       .  S
C1707      F1717   1.383       .  S
C1721      C1722   1.399       .  A
C1721      C1726   1.404       .  A
C1721      H1731   1.084       .  S
C1722      C1723   1.413       .  A
C1722      C1727   1.479       .  S
C1723      C1724   1.408       .  A
C1723      C1728   1.517       .  S
C1724      C1725   1.406       .  A
C1724      H1729   1.083       .  S
C1725      C1726   1.422       .  A
C1726      C1730   1.520       .  S
C1727      C1732   1.417       .  A
C1727      C1736   1.402       .  A
C1728      F1744   1.382       .  S
C1728      F1745   1.383       .  S
C1728      F1746   1.384       .  S
C1730      F1741   1.385       .  S
C1730      F1742   1.383       .  S
C1730      F1743   1.384       .  S
C1732      C1733   1.406       .  A
C1732      C1737   1.518       .  S
C1733      C1734   1.403       .  A
C1733      H1738   1.085       .  S
C1734      C1735   1.416       .  A
C1735      C1736   1.403       .  A
C1735      C1739   1.520       .  S
C1736      H1740   1.084       .  S
C1737      F1750   1.383       .  S
C1737      F1751   1.383       .  S
C1737      F1752   1.382       .  S
C1739      F1747   1.382       .  S
C1739      F1748   1.384       .  S
C1739      F1749   1.385       .  S
C1753      C1754   1.398       .  A
C1753      C1758   1.407       .  A
C1753      H1763   1.083       .  S
C1754      C1755   1.413       .  A
C1754      C1759   1.483       .  S
C1755      C1756   1.407       .  A
C1755      C1760   1.520       .  S
C1756      C1757   1.409       .  A
C1756      H1761   1.082       .  S
C1757      C1758   1.427       .  A
C1758      C1762   1.522       .  S
C1759      C1764   1.414       .  A
C1759      C1768   1.400       .  A
C1760      F1776   1.383       .  S
C1760      F1777   1.382       .  S
C1760      F1778   1.384       .  S
C1762      F1773   1.384       .  S
C1762      F1774   1.384       .  S
C1762      F1775   1.383       .  S
C1764      C1765   1.406       .  A
C1764      C1769   1.520       .  S
C1765      C1766   1.406       .  A
C1765      H1770   1.083       .  S
C1766      C1767   1.423       .  A
C1767      C1768   1.408       .  A
C1767      C1771   1.521       .  S
C1768      H1772   1.083       .  S
C1769      F1782   1.384       .  S
C1769      F1783   1.382       .  S
C1769      F1784   1.382       .  S
C1771      F1779   1.385       .  S
C1771      F1780   1.383       .  S
C1771      F1781   1.384       .  S
C1785      C1786   1.401       .  A
C1785      C1790   1.410       .  A
C1785      H1795   1.083       .  S
C1786      C1787   1.413       .  A
C1786      C1791   1.486       .  S
C1787      C1788   1.405       .  A
C1787      C1792   1.520       .  S
C1788      C1789   1.407       .  A
C1788      H1793   1.083       .  S
C1789      C1790   1.426       .  A
C1790      C1794   1.520       .  S
C1791      C1796   1.415       .  A
C1791      C1800   1.402       .  A
C1792      F1808   1.382       .  S
C1792      F1809   1.383       .  S
C1792      F1810   1.384       .  S
C1794      F1805   1.383       .  S
C1794      F1806   1.385       .  S
C1794      F1807   1.383       .  S
C1796      C1797   1.407       .  A
C1796      C1801   1.520       .  S
C1797      C1798   1.405       .  A
C1797      H1802   1.083       .  S
C1798      C1799   1.419       .  A
C1799      C1800   1.408       .  A
C1799      C1803   1.519       .  S
C1800      H1804   1.083       .  S
C1801      F1814   1.385       .  S
C1801      F1815   1.382       .  S
C1801      F1816   1.382       .  S
C1803      F1811   1.382       .  S
C1803      F1812   1.383       .  S
C1803      F1813   1.385       .  S
C1817      C1818   1.400       .  A
C1817      C1822   1.404       .  A
C1817      H1827   1.084       .  S
C1818      C1819   1.413       .  A
C1818      C1823   1.480       .  S
C1819      C1820   1.407       .  A
C1819      C1824   1.519       .  S
C1820      C1821   1.407       .  A
C1820      H1825   1.082       .  S
C1821      C1822   1.421       .  A
C1822      C1826   1.520       .  S
C1823      C1828   1.417       .  A
C1823      C1832   1.402       .  A
C1824      F1840   1.382       .  S
C1824      F1841   1.382       .  S
C1824      F1842   1.384       .  S
C1826      F1837   1.385       .  S
C1826      F1838   1.382       .  S
C1826      F1839   1.383       .  S
C1828      C1829   1.406       .  A
C1828      C1833   1.519       .  S
C1829      C1830   1.400       .  A
C1829      H1834   1.083       .  S
C1830      C1831   1.413       .  A
C1831      C1832   1.403       .  A
C1831      C1835   1.518       .  S
C1832      H1836   1.083       .  S
C1833      F1846   1.385       .  S
C1833      F1847   1.382       .  S
C1833      F1848   1.382       .  S
C1835      F1843   1.382       .  S
C1835      F1844   1.384       .  S
C1835      F1845   1.384       .  S
C1849      C1850   1.402       .  A
C1849      C1854   1.412       .  A
C1849      H1859   1.083       .  S
C1850      C1851   1.412       .  A
C1850      C1855   1.487       .  S
C1851      C1852   1.404       .  A
C1851      C1856   1.520       .  S
C1852      C1853   1.411       .  A
C1852      H1857   1.082       .  S
C1853      C1854   1.427       .  A
C1854      C1858   1.521       .  S
C1855      C1860   1.417       .  A
C1855      C1864   1.401       .  A
C1856      F1872   1.382       .  S
C1856      F1873   1.382       .  S
C1856      F1874   1.385       .  S
C1858      F1869   1.383       .  S
C1858      F1870   1.385       .  S
C1858      F1871   1.384       .  S
C1860      C1861   1.409       .  A
C1860      C1865   1.519       .  S
C1861      C1862   1.405       .  A
C1861      H1866   1.083       .  S
C1862      C1863   1.421       .  A
C1863      C1864   1.407       .  A
C1863      C1867   1.520       .  S
C1864      H1868   1.083       .  S
C1865      F1878   1.385       .  S
C1865      F1879   1.382       .  S
C1865      F1880   1.382       .  S
C1867      F1875   1.382       .  S
C1867      F1876   1.384       .  S
C1867      F1877   1.385       .  S
C1881      C1882   1.402       .  A
C1881      C1886   1.408       .  A
C1881      H1891   1.083       .  S
C1882      C1883   1.414       .  A
C1882      C1887   1.483       .  S
C1883      C1884   1.406       .  A
C1883      C1888   1.521       .  S
C1884      C1885   1.406       .  A
C1884      H1889   1.083       .  S
C1885      C1886   1.417       .  A
C1886      C1890   1.517       .  S
C1887      C1892   1.415       .  A
C1887      C1896   1.404       .  A
C1888      F1904   1.382       .  S
C1888      F1905   1.383       .  S
C1888      F1906   1.384       .  S
C1890      F1901   1.380       .  S
C1890      F1902   1.384       .  S
C1890      F1903   1.383       .  S
C1892      C1893   1.406       .  A
C1892      C1897   1.520       .  S
C1893      C1894   1.404       .  A
C1893      H1898   1.083       .  S
C1894      C1895   1.414       .  A
C1895      C1896   1.409       .  A
C1895      C1899   1.516       .  S
C1896      H1900   1.083       .  S
C1897      F1910   1.384       .  S
C1897      F1911   1.382       .  S
C1897      F1912   1.383       .  S
C1899      F1907   1.382       .  S
C1899      F1908   1.384       .  S
C1899      F1909   1.385       .  S
C1913      C1914   1.403       .  A
C1913      C1918   1.414       .  A
C1913      H1923   1.083       .  S
C1914      C1915   1.413       .  A
C1914      C1919   1.487       .  S
C1915      C1916   1.403       .  A
C1915      C1920   1.522       .  S
C1916      C1917   1.409       .  A
C1916      H1921   1.082       .  S
C1917      C1918   1.424       .  A
C1918      C1922   1.518       .  S
C1919      C1924   1.415       .  A
C1919      C1928   1.400       .  A
C1920      F1936   1.382       .  S
C1920      F1937   1.382       .  S
C1920      F1938   1.385       .  S
C1922      F1933   1.380       .  S
C1922      F1934   1.385       .  S
C1922      F1935   1.383       .  S
C1924      C1925   1.409       .  A
C1924      C1929   1.518       .  S
C1925      C1926   1.406       .  A
C1925      H1930   1.083       .  S
C1926      C1927   1.422       .  A
C1927      C1928   1.407       .  A
C1927      C1931   1.520       .  S
C1928      H1932   1.083       .  S
C1929      F1942   1.384       .  S
C1929      F1943   1.383       .  S
C1929      F1944   1.383       .  S
C1931      F1939   1.385       .  S
C1931      F1940   1.383       .  S
C1931      F1941   1.382       .  S
C1945      C1946   1.400       .  A
C1945      C1950   1.409       .  A
C1945      H1955   1.083       .  S
C1946      C1947   1.412       .  A
C1946      C1951   1.479       .  S
C1947      C1948   1.403       .  A
C1947      C1952   1.521       .  S
C1948      C1949   1.408       .  A
C1948      H1953   1.082       .  S
C1949      C1950   1.422       .  A
C1950      C1954   1.519       .  S
C1951      C1956   1.414       .  A
C1951      C1960   1.400       .  A
C1952      F1968   1.383       .  S
C1952      F1969   1.382       .  S
C1952      F1970   1.384       .  S
C1954      F1965   1.379       .  S
C1954      F1966   1.385       .  S
C1954      F1967   1.384       .  S
C1956      C1957   1.406       .  A
C1956      C1961   1.519       .  S
C1957      C1958   1.405       .  A
C1957      H1962   1.083       .  S
C1958      C1959   1.419       .  A
C1959      C1960   1.405       .  A
C1959      C1963   1.520       .  S
C1960      H1964   1.083       .  S
C1961      F1974   1.385       .  S
C1961      F1975   1.383       .  S
C1961      F1976   1.382       .  S
C1963      F1971   1.382       .  S
C1963      F1972   1.383       .  S
C1963      F1973   1.385       .  S
C1977      C1978   1.399       .  A
C1977      C1982   1.406       .  A
C1977      H1987   1.083       .  S
C1978      C1979   1.414       .  A
C1978      C1983   1.481       .  S
C1979      C1980   1.406       .  A
C1979      C1984   1.521       .  S
C1980      C1981   1.409       .  A
C1980      H1985   1.082       .  S
C1981      C1982   1.425       .  A
C1982      C1986   1.522       .  S
C1983      C1988   1.413       .  A
C1983      C1992   1.401       .  A
C1984      F2000   1.382       .  S
C1984      F2001   1.381       .  S
C1984      F2002   1.385       .  S
C1986      F1997   1.382       .  S
C1986      F1998   1.385       .  S
C1986      F1999   1.384       .  S
C1988      C1989   1.406       .  A
C1988      C1993   1.520       .  S
C1989      C1990   1.407       .  A
C1989      H1994   1.083       .  S
C1990      C1991   1.423       .  A
C1991      C1992   1.407       .  A
C1991      C1995   1.521       .  S
C1992      H1996   1.083       .  S
C1993      F2006   1.385       .  S
C1993      F2007   1.382       .  S
C1993      F2008   1.381       .  S
C1995      F2003   1.383       .  S
C1995      F2004   1.383       .  S
C1995      F2005   1.385       .  S
C2009      C2010   1.397       .  A
C2009      C2014   1.401       .  A
C2009      H2019   1.084       .  S
C2010      C2011   1.413       .  A
C2010      C2015   1.478       .  S
C2011      C2012   1.408       .  A
C2011      C2016   1.518       .  S
C2012      C2013   1.406       .  A
C2012      H2017   1.083       .  S
C2013      C2014   1.422       .  A
C2014      C2018   1.521       .  S
C2015      C2020   1.414       .  A
C2015      C2024   1.402       .  A
C2016      F2032   1.383       .  S
C2016      F2033   1.382       .  S
C2016      F2034   1.385       .  S
C2018      F2029   1.383       .  S
C2018      F2030   1.385       .  S
C2018      F2031   1.384       .  S
C2020      C2021   1.401       .  A
C2020      C2025   1.522       .  S
C2021      C2022   1.405       .  A
C2021      H2026   1.083       .  S
C2022      C2023   1.418       .  A
C2023      C2024   1.409       .  A
C2023      C2027   1.518       .  S
C2024      H2028   1.083       .  S
C2025      F2038   1.385       .  S
C2025      F2039   1.383       .  S
C2025      F2040   1.382       .  S
C2027      F2035   1.385       .  S
C2027      F2036   1.383       .  S
C2027      F2037   1.380       .  S
C2041      C2042   1.402       .  A
C2041      C2046   1.407       .  A
C2041      H2051   1.083       .  S
C2042      C2043   1.417       .  A
C2042      C2047   1.482       .  S
C2043      C2044   1.407       .  A
C2043      C2048   1.521       .  S
C2044      C2045   1.402       .  A
C2044      H2049   1.083       .  S
C2045      C2046   1.414       .  A
C2046      C2050   1.517       .  S
C2047      C2052   1.416       .  A
C2047      C2056   1.399       .  A
C2048      F2064   1.382       .  S
C2048      F2065   1.382       .  S
C2048      F2066   1.384       .  S
C2050      F2061   1.384       .  S
C2050      F2062   1.383       .  S
C2050      F2063   1.383       .  S
C2052      C2053   1.407       .  A
C2052      C2057   1.518       .  S
C2053      C2054   1.402       .  A
C2053      H2058   1.083       .  S
C2054      C2055   1.420       .  A
C2055      C2056   1.404       .  A
C2055      C2059   1.519       .  S
C2056      H2060   1.083       .  S
C2057      F2070   1.385       .  S
C2057      F2071   1.382       .  S
C2057      F2072   1.382       .  S
C2059      F2067   1.385       .  S
C2059      F2068   1.384       .  S
C2059      F2069   1.380       .  S
C2073      C2074   1.401       .  A
C2073      C2078   1.407       .  A
C2073      H2083   1.083       .  S
C2074      C2075   1.413       .  A
C2074      C2079   1.480       .  S
C2075      C2076   1.403       .  A
C2075      C2080   1.521       .  S
C2076      C2077   1.406       .  A
C2076      H2081   1.082       .  S
C2077      C2078   1.421       .  A
C2078      C2082   1.518       .  S
C2079      C2084   1.413       .  A
C2079      C2088   1.403       .  A
C2080      F2096   1.382       .  S
C2080      F2097   1.383       .  S
C2080      F2098   1.384       .  S
C2082      F2093   1.383       .  S
C2082      F2094   1.385       .  S
C2082      F2095   1.383       .  S
C2084      C2085   1.403       .  A
C2084      C2089   1.521       .  S
C2085      C2086   1.406       .  A
C2085      H2090   1.083       .  S
C2086      C2087   1.417       .  A
C2087      C2088   1.407       .  A
C2087      C2091   1.518       .  S
C2088      H2092   1.083       .  S
C2089      F2102   1.384       .  S
C2089      F2103   1.382       .  S
C2089      F2104   1.383       .  S
C2091      F2099   1.382       .  S
C2091      F2100   1.384       .  S
C2091      F2101   1.385       .  S
C2105      C2106   1.403       .  A
C2105      C2110   1.410       .  A
C2105      H2115   1.083       .  S
C2106      C2107   1.415       .  A
C2106      C2111   1.487       .  S
C2107      C2108   1.406       .  A
C2107      C2112   1.519       .  S
C2108      C2109   1.404       .  A
C2108      H2113   1.082       .  S
C2109      C2110   1.421       .  A
C2110      C2114   1.521       .  S
C2111      C2116   1.416       .  A
C2111      C2120   1.399       .  A
C2112      F2128   1.382       .  S
C2112      F2129   1.382       .  S
C2112      F2130   1.384       .  S
C2114      F2125   1.384       .  S
C2114      F2126   1.382       .  S
C2114      F2127   1.384       .  S
C2116      C2117   1.410       .  A
C2116      C2121   1.517       .  S
C2117      C2118   1.405       .  A
C2117      H2122   1.083       .  S
C2118      C2119   1.422       .  A
C2119      C2120   1.405       .  A
C2119      C2123   1.520       .  S
C2120      H2124   1.084       .  S
C2121      F2134   1.385       .  S
C2121      F2135   1.382       .  S
C2121      F2136   1.382       .  S
C2123      F2131   1.383       .  S
C2123      F2132   1.383       .  S
C2123      F2133   1.385       .  S
C2137      C2138   1.401       .  A
C2137      C2142   1.402       .  A
C2137      H2147   1.085       .  S
C2138      C2139   1.414       .  A
C2138      C2143   1.478       .  S
C2139      C2140   1.404       .  A
C2139      C2144   1.519       .  S
C2140      C2141   1.404       .  A
C2140      H2145   1.084       .  S
C2141      C2142   1.417       .  A
C2142      C2146   1.520       .  S
C2143      C2148   1.414       .  A
C2143      C2152   1.397       .  A
C2144      F2160   1.382       .  S
C2144      F2161   1.383       .  S
C2144      F2162   1.385       .  S
C2146      F2157   1.384       .  S
C2146      F2158   1.383       .  S
C2146      F2159   1.380       .  S
C2148      C2149   1.405       .  A
C2148      C2153   1.520       .  S
C2149      C2150   1.406       .  A
C2149      H2154   1.083       .  S
C2150      C2151   1.425       .  A
C2151      C2152   1.405       .  A
C2151      C2155   1.521       .  S
C2152      H2156   1.083       .  S
C2153      F2166   1.385       .  S
C2153      F2167   1.382       .  S
C2153      F2168   1.383       .  S
C2155      F2163   1.385       .  S
C2155      F2164   1.383       .  S
C2155      F2165   1.380       .  S
C2169      C2170   1.398       .  A
C2169      C2174   1.400       .  A
C2169      H2179   1.083       .  S
C2170      C2171   1.414       .  A
C2170      C2175   1.472       .  S
C2171      C2172   1.404       .  A
C2171      C2176   1.521       .  S
C2172      C2173   1.406       .  A
C2172      H2177   1.083       .  S
C2173      C2174   1.416       .  A
C2174      C2178   1.518       .  S
C2175      C2180   1.413       .  A
C2175      C2184   1.399       .  A
C2176      F2192   1.382       .  S
C2176      F2193   1.382       .  S
C2176      F2194   1.385       .  S
C2178      F2189   1.382       .  S
C2178      F2190   1.385       .  S
C2178      F2191   1.383       .  S
C2180      C2181   1.402       .  A
C2180      C2185   1.520       .  S
C2181      C2182   1.404       .  A
C2181      H2186   1.083       .  S
C2182      C2183   1.420       .  A
C2183      C2184   1.403       .  A
C2183      C2187   1.521       .  S
C2184      H2188   1.083       .  S
C2185      F2198   1.384       .  S
C2185      F2199   1.382       .  S
C2185      F2200   1.382       .  S
C2187      F2195   1.383       .  S
C2187      F2196   1.384       .  S
C2187      F2197   1.385       .  S
C2201      C2202   1.401       .  A
C2201      C2206   1.403       .  A
C2201      H2211   1.083       .  S
C2202      C2203   1.412       .  A
C2202      C2207   1.477       .  S
C2203      C2204   1.403       .  A
C2203      C2208   1.519       .  S
C2204      C2205   1.407       .  A
C2204      H2209   1.083       .  S
C2205      C2206   1.417       .  A
C2206      C2210   1.518       .  S
C2207      C2212   1.415       .  A
C2207      C2216   1.400       .  A
C2208      F2224   1.382       .  S
C2208      F2225   1.382       .  S
C2208      F2226   1.385       .  S
C2210      F2221   1.385       .  S
C2210      F2222   1.380       .  S
C2210      F2223   1.384       .  S
C2212      C2213   1.406       .  A
C2212      C2217   1.520       .  S
C2213      C2214   1.403       .  A
C2213      H2218   1.083       .  S
C2214      C2215   1.417       .  A
C2215      C2216   1.401       .  A
C2215      C2219   1.519       .  S
C2216      H2220   1.084       .  S
C2217      F2230   1.384       .  S
C2217      F2231   1.382       .  S
C2217      F2232   1.382       .  S
C2219      F2227   1.381       .  S
C2219      F2228   1.383       .  S
C2219      F2229   1.385       .  S
C2233      C2234   1.402       .  A
C2233      C2238   1.407       .  A
C2233      H2243   1.083       .  S
C2234      C2235   1.414       .  A
C2234      C2239   1.483       .  S
C2235      C2236   1.405       .  A
C2235      C2240   1.520       .  S
C2236      C2237   1.405       .  A
C2236      H2241   1.083       .  S
C2237      C2238   1.420       .  A
C2238      C2242   1.520       .  S
C2239      C2244   1.413       .  A
C2239      C2248   1.398       .  A
C2240      F2256   1.382       .  S
C2240      F2257   1.382       .  S
C2240      F2258   1.385       .  S
C2242      F2253   1.384       .  S
C2242      F2254   1.383       .  S
C2242      F2255   1.384       .  S
C2244      C2245   1.407       .  A
C2244      C2249   1.520       .  S
C2245      C2246   1.408       .  A
C2245      H2250   1.082       .  S
C2246      C2247   1.429       .  A
C2247      C2248   1.408       .  A
C2247      C2251   1.523       .  S
C2248      H2252   1.083       .  S
C2249      F2262   1.384       .  S
C2249      F2263   1.382       .  S
C2249      F2264   1.382       .  S
C2251      F2259   1.385       .  S
C2251      F2260   1.384       .  S
C2251      F2261   1.383       .  S
C2265      C2266   1.403       .  A
C2265      C2270   1.408       .  A
C2265      H2275   1.083       .  S
C2266      C2267   1.415       .  A
C2266      C2271   1.485       .  S
C2267      C2268   1.408       .  A
C2267      C2272   1.520       .  S
C2268      C2269   1.404       .  A
C2268      H2273   1.083       .  S
C2269      C2270   1.416       .  A
C2270      C2274   1.517       .  S
C2271      C2276   1.413       .  A
C2271      C2280   1.402       .  A
C2272      F2288   1.382       .  S
C2272      F2289   1.381       .  S
C2272      F2290   1.385       .  S
C2274      F2285   1.382       .  S
C2274      F2286   1.385       .  S
C2274      F2287   1.384       .  S
C2276      C2277   1.406       .  A
C2276      C2281   1.521       .  S
C2277      C2278   1.410       .  A
C2277      H2282   1.082       .  S
C2278      C2279   1.423       .  A
C2279      C2280   1.411       .  A
C2279      C2283   1.519       .  S
C2280      H2284   1.083       .  S
C2281      F2294   1.384       .  S
C2281      F2295   1.382       .  S
C2281      F2296   1.382       .  S
C2283      F2291   1.383       .  S
C2283      F2292   1.384       .  S
C2283      F2293   1.384       .  S
C2297      C2298   1.400       .  A
C2297      C2302   1.404       .  A
C2297      H2307   1.084       .  S
C2298      C2299   1.418       .  A
C2298      C2303   1.485   1_556  S
C2299      C2300   1.410       .  A
C2299      C2304   1.519       .  S
C2300      C2301   1.405       .  A
C2300      H2305   1.083       .  S
C2301      C2302   1.418       .  A
C2302      C2306   1.518       .  S
C2303      C2308   1.415       .  A
C2303      C2312   1.403       .  A
C2304      F2320   1.382   1_556  S
C2304      F2321   1.381       .  S
C2304      F2322   1.385       .  S
C2306      F2317   1.383       .  S
C2306      F2318   1.385       .  S
C2306      F2319   1.381       .  S
C2308      C2309   1.408       .  A
C2308      C2313   1.518       .  S
C2309      C2310   1.405       .  A
C2309      H2314   1.083       .  S
C2310      C2311   1.418       .  A
C2311      C2312   1.406       .  A
C2311      C2315   1.519       .  S
C2312      H2316   1.084       .  S
C2313      F2326   1.385       .  S
C2313      F2327   1.382       .  S
C2313      F2328   1.380       .  S
C2315      F2323   1.382       .  S
C2315      F2324   1.383       .  S
C2315      F2325   1.385       .  S
C2329      C2330   1.399       .  A
C2329      C2334   1.410       .  A
C2329      H2339   1.083       .  S
C2330      C2331   1.411       .  A
C2330      C2335   1.486       .  S
C2331      C2332   1.407       .  A
C2331      C2336   1.522       .  S
C2332      C2333   1.415       .  A
C2332      H2337   1.081       .  S
C2333      C2334   1.429       .  A
C2334      C2338   1.521       .  S
C2335      C2340   1.413       .  A
C2335      C2344   1.401       .  A
C2336      F2352   1.382       .  S
C2336      F2353   1.382       .  S
C2336      F2354   1.384       .  S
C2338      F2349   1.382       .  S
C2338      F2350   1.385       .  S
C2338      F2351   1.383       .  S
C2340      C2341   1.408       .  A
C2340      C2345   1.521       .  S
C2341      C2342   1.410       .  A
C2341      H2346   1.083       .  S
C2342      C2343   1.424       .  A
C2343      C2344   1.409       .  A
C2343      C2347   1.520       .  S
C2344      H2348   1.083       .  S
C2345      F2358   1.384       .  S
C2345      F2359   1.382       .  S
C2345      F2360   1.382       .  S
C2347      F2355   1.383       .  S
C2347      F2356   1.383       .  S
C2347      F2357   1.385       .  S
C2361      C2362   1.403       .  A
C2361      C2366   1.410       .  A
C2361      H2371   1.083       .  S
C2362      C2363   1.413       .  A
C2362      C2367   1.483       .  S
C2363      C2364   1.405       .  A
C2363      C2368   1.520       .  S
C2364      C2365   1.406       .  A
C2364      H2369   1.083       .  S
C2365      C2366   1.418       .  A
C2366      C2370   1.518       .  S
C2367      C2372   1.415       .  A
C2367      C2376   1.400       .  A
C2368      F2384   1.382       .  S
C2368      F2385   1.382       .  S
C2368      F2386   1.384       .  S
C2370      F2381   1.381       .  S
C2370      F2382   1.385       .  S
C2370      F2383   1.384       .  S
C2372      C2373   1.406       .  A
C2372      C2377   1.520       .  S
C2373      C2374   1.406       .  A
C2373      H2378   1.083       .  S
C2374      C2375   1.422       .  A
C2375      C2376   1.406       .  A
C2375      C2379   1.519       .  S
C2376      H2380   1.083       .  S
C2377      F2390   1.384       .  S
C2377      F2391   1.382       .  S
C2377      F2392   1.382       .  S
C2379      F2387   1.378       .  S
C2379      F2388   1.383       .  S
C2379      F2389   1.384       .  S
C2393      C2394   1.404       .  A
C2393      C2398   1.413       .  A
C2393      H2403   1.083       .  S
C2394      C2395   1.415       .  A
C2394      C2399   1.486   1_655  S
C2395      C2396   1.403       .  A
C2395      C2400   1.521   1_655  S
C2396      C2397   1.405       .  A
C2396      H2401   1.083       .  S
C2397      C2398   1.419       .  A
C2398      C2402   1.518       .  S
C2399      C2404   1.413       .  A
C2399      C2408   1.400       .  A
C2400      F2416   1.382       .  S
C2400      F2417   1.382       .  S
C2400      F2418   1.385   1_455  S
C2402      F2413   1.384       .  S
C2402      F2414   1.384       .  S
C2402      F2415   1.383       .  S
C2404      C2405   1.410       .  A
C2404      C2409   1.518       .  S
C2405      C2406   1.408       .  A
C2405      H2410   1.082       .  S
C2406      C2407   1.423       .  A
C2407      C2408   1.407       .  A
C2407      C2411   1.519       .  S
C2408      H2412   1.084       .  S
C2409      F2422   1.384       .  S
C2409      F2423   1.383       .  S
C2409      F2424   1.382       .  S
C2411      F2419   1.385       .  S
C2411      F2420   1.383       .  S
C2411      F2421   1.382       .  S
C2425      C2426   1.399       .  A
C2425      C2430   1.411       .  A
C2425      H2435   1.083       .  S
C2426      C2427   1.410       .  A
C2426      C2431   1.482       .  S
C2427      C2428   1.402       .  A
C2427      C2432   1.522       .  S
C2428      C2429   1.414       .  A
C2428      H2433   1.081       .  S
C2429      C2430   1.429       .  A
C2430      C2434   1.520       .  S
C2431      C2436   1.413       .  A
C2431      C2440   1.399       .  A
C2432      F2448   1.382       .  S
C2432      F2449   1.382       .  S
C2432      F2450   1.385       .  S
C2434      F2445   1.382       .  S
C2434      F2446   1.385       .  S
C2434      F2447   1.383       .  S
C2436      C2437   1.404       .  A
C2436      C2441   1.520       .  S
C2437      C2438   1.408       .  A
C2437      H2442   1.082       .  S
C2438      C2439   1.426       .  A
C2439      C2440   1.406       .  A
C2439      C2443   1.522       .  S
C2440      H2444   1.083       .  S
C2441      F2454   1.385       .  S
C2441      F2455   1.382       .  S
C2441      F2456   1.383       .  S
C2443      F2451   1.383       .  S
C2443      F2452   1.384       .  S
C2443      F2453   1.385       .  S
C2457      C2458   1.399       .  A
C2457      C2462   1.404       .  A
C2457      H2467   1.084       .  S
C2458      C2459   1.414       .  A
C2458      C2463   1.482       .  S
C2459      C2460   1.408       .  A
C2459      C2464   1.518       .  S
C2460      C2461   1.407       .  A
C2460      H2465   1.083       .  S
C2461      C2462   1.419       .  A
C2462      C2466   1.518       .  S
C2463      C2468   1.415       .  A
C2463      C2472   1.397       .  A
C2464      F2480   1.383       .  S
C2464      F2481   1.382       .  S
C2464      F2482   1.385       .  S
C2466      F2477   1.382       .  S
C2466      F2478   1.385       .  S
C2466      F2479   1.384       .  S
C2468      C2469   1.406       .  A
C2468      C2473   1.519       .  S
C2469      C2470   1.406       .  A
C2469      H2474   1.083       .  S
C2470      C2471   1.429       .  A
C2471      C2472   1.407       .  A
C2471      C2475   1.522       .  S
C2472      H2476   1.083       .  S
C2473      F2486   1.384       .  S
C2473      F2487   1.382       .  S
C2473      F2488   1.382       .  S
C2475      F2483   1.383       .  S
C2475      F2484   1.384       .  S
C2475      F2485   1.385       .  S
C2489      C2490   1.403       .  A
C2489      C2494   1.408       .  A
C2489      H2499   1.083       .  S
C2490      C2491   1.415       .  A
C2490      C2495   1.480       .  S
C2491      C2492   1.401       .  A
C2491      C2496   1.521       .  S
C2492      C2493   1.403       .  A
C2492      H2497   1.083       .  S
C2493      C2494   1.416       .  A
C2494      C2498   1.518       .  S
C2495      C2500   1.412       .  A
C2495      C2504   1.399       .  A
C2496      F2512   1.382       .  S
C2496      F2513   1.381       .  S
C2496      F2514   1.385       .  S
C2498      F2509   1.383       .  S
C2498      F2510   1.385       .  S
C2498      F2511   1.383       .  S
C2500      C2501   1.407   1_565  A
C2500      C2505   1.519       .  S
C2501      C2502   1.408       .  A
C2501      H2506   1.080       .  S
C2502      C2503   1.425       .  A
C2503      C2504   1.404   1_545  A
C2503      C2507   1.522       .  S
C2504      H2508   1.084       .  S
C2505      F2518   1.384       .  S
C2505      F2519   1.382       .  S
C2505      F2520   1.381       .  S
C2507      F2515   1.385   1_545  S
C2507      F2516   1.383       .  S
C2507      F2517   1.383       .  S
C2521      C2522   1.403       .  A
C2521      C2526   1.407       .  A
C2521      H2531   1.083       .  S
C2522      C2523   1.416       .  A
C2522      C2527   1.483       .  S
C2523      C2524   1.407       .  A
C2523      C2528   1.520       .  S
C2524      C2525   1.403       .  A
C2524      H2529   1.083       .  S
C2525      C2526   1.416       .  A
C2526      C2530   1.518       .  S
C2527      C2532   1.418       .  A
C2527      C2536   1.401       .  A
C2528      F2544   1.382       .  S
C2528      F2545   1.381       .  S
C2528      F2546   1.384       .  S
C2530      F2541   1.385       .  S
C2530      F2542   1.382       .  S
C2530      F2543   1.383       .  S
C2532      C2533   1.409       .  A
C2532      C2537   1.519       .  S
C2533      C2534   1.401       .  A
C2533      H2538   1.083       .  S
C2534      C2535   1.417       .  A
C2535      C2536   1.405       .  A
C2535      C2539   1.520       .  S
C2536      H2540   1.083       .  S
C2537      F2550   1.384       .  S
C2537      F2551   1.382       .  S
C2537      F2552   1.381       .  S
C2539      F2547   1.385       .  S
C2539      F2548   1.383       .  S
C2539      F2549   1.380       .  S
C2553      C2554   1.400       .  A
C2553      C2558   1.406       .  A
C2553      H2563   1.083       .  S
C2554      C2555   1.417       .  A
C2554      C2559   1.487       .  S
C2555      C2556   1.410       .  A
C2555      C2560   1.519       .  S
C2556      C2557   1.405       .  A
C2556      H2561   1.083       .  S
C2557      C2558   1.419       .  A
C2558      C2562   1.519       .  S
C2559      C2564   1.417       .  A
C2559      C2568   1.401       .  A
C2560      F2576   1.382       .  S
C2560      F2577   1.382       .  S
C2560      F2578   1.385       .  S
C2562      F2573   1.382       .  S
C2562      F2574   1.384       .  S
C2562      F2575   1.383       .  S
C2564      C2565   1.409       .  A
C2564      C2569   1.520       .  S
C2565      C2566   1.405       .  A
C2565      H2570   1.083       .  S
C2566      C2567   1.421       .  A
C2567      C2568   1.409       .  A
C2567      C2571   1.519       .  S
C2568      H2572   1.083       .  S
C2569      F2582   1.384       .  S
C2569      F2583   1.382       .  S
C2569      F2584   1.383       .  S
C2571      F2579   1.382       .  S
C2571      F2580   1.384       .  S
C2571      F2581   1.385       .  S
C2585      C2586   1.401       .  A
C2585      C2590   1.409       .  A
C2585      H2595   1.083       .  S
C2586      C2587   1.415       .  A
C2586      C2591   1.483   1_556  S
C2587      C2588   1.405       .  A
C2587      C2592   1.521       .  S
C2588      C2589   1.405       .  A
C2588      H2593   1.083       .  S
C2589      C2590   1.420       .  A
C2590      C2594   1.519       .  S
C2591      C2596   1.415       .  A
C2591      C2600   1.399       .  A
C2592      F2608   1.382   1_556  S
C2592      F2609   1.382   1_556  S
C2592      F2610   1.385       .  S
C2594      F2605   1.382       .  S
C2594      F2606   1.385       .  S
C2594      F2607   1.384       .  S
C2596      C2597   1.410       .  A
C2596      C2601   1.518       .  S
C2597      C2598   1.405       .  A
C2597      H2602   1.083       .  S
C2598      C2599   1.422       .  A
C2599      C2600   1.404       .  A
C2599      C2603   1.521       .  S
C2600      H2604   1.084       .  S
C2601      F2614   1.384       .  S
C2601      F2615   1.382       .  S
C2601      F2616   1.382       .  S
C2603      F2611   1.385       .  S
C2603      F2612   1.384       .  S
C2603      F2613   1.382       .  S
C2617      C2618   1.399       .  A
C2617      C2622   1.405       .  A
C2617      H2627   1.083       .  S
C2618      C2619   1.414       .  A
C2618      C2623   1.480       .  S
C2619      C2620   1.405       .  A
C2619      C2624   1.520       .  S
C2620      C2621   1.407       .  A
C2620      H2625   1.082       .  S
C2621      C2622   1.424       .  A
C2622      C2626   1.521       .  S
C2623      C2628   1.413       .  A
C2623      C2632   1.401       .  A
C2624      F2640   1.382       .  S
C2624      F2641   1.382       .  S
C2624      F2642   1.385       .  S
C2626      F2637   1.385       .  S
C2626      F2638   1.383       .  S
C2626      F2639   1.384       .  S
C2628      C2629   1.405       .  A
C2628      C2633   1.520       .  S
C2629      C2630   1.408       .  A
C2629      H2634   1.083       .  S
C2630      C2631   1.419       .  A
C2631      C2632   1.405       .  A
C2631      C2635   1.519       .  S
C2632      H2636   1.083       .  S
C2633      F2646   1.385       .  S
C2633      F2647   1.382       .  S
C2633      F2648   1.382       .  S
C2635      F2643   1.385       .  S
C2635      F2644   1.384       .  S
C2635      F2645   1.383       .  S
C2649      C2650   1.402       .  A
C2649      C2654   1.408       .  A
C2649      H2659   1.083       .  S
C2650      C2651   1.415       .  A
C2650      C2655   1.485       .  S
C2651      C2652   1.406       .  A
C2651      C2656   1.520       .  S
C2652      C2653   1.406       .  A
C2652      H2657   1.083       .  S
C2653      C2654   1.419       .  A
C2654      C2658   1.519       .  S
C2655      C2660   1.414       .  A
C2655      C2664   1.397       .  A
C2656      F2672   1.382       .  S
C2656      F2673   1.382       .  S
C2656      F2674   1.385       .  S
C2658      F2669   1.382       .  S
C2658      F2670   1.385       .  S
C2658      F2671   1.384       .  S
C2660      C2661   1.409       .  A
C2660      C2665   1.519       .  S
C2661      C2662   1.407       .  A
C2661      H2666   1.083       .  S
C2662      C2663   1.430       .  A
C2663      C2664   1.408       .  A
C2663      C2667   1.523       .  S
C2664      H2668   1.083       .  S
C2665      F2678   1.384       .  S
C2665      F2679   1.382       .  S
C2665      F2680   1.382       .  S
C2667      F2675   1.385       .  S
C2667      F2676   1.382       .  S
C2667      F2677   1.384       .  S
C2681      C2682   1.402       .  A
C2681      C2686   1.406       .  A
C2681      H2691   1.083       .  S
C2682      C2683   1.414       .  A
C2682      C2687   1.484   1_556  S
C2683      C2684   1.407       .  A
C2683      C2688   1.519       .  S
C2684      C2685   1.408       .  A
C2684      H2689   1.083       .  S
C2685      C2686   1.420       .  A
C2686      C2690   1.519       .  S
C2687      C2692   1.418       .  A
C2687      C2696   1.401       .  A
C2688      F2704   1.382       .  S
C2688      F2705   1.381       .  S
C2688      F2706   1.385       .  S
C2690      F2701   1.385       .  S
C2690      F2702   1.382       .  S
C2690      F2703   1.383       .  S
C2692      C2693   1.408       .  A
C2692      C2697   1.520       .  S
C2693      C2694   1.403       .  A
C2693      H2698   1.083       .  S
C2694      C2695   1.416       .  A
C2695      C2696   1.403       .  A
C2695      C2699   1.517       .  S
C2696      H2700   1.084       .  S
C2697      F2710   1.385       .  S
C2697      F2711   1.382   1_554  S
C2697      F2712   1.382   1_554  S
C2699      F2707   1.383       .  S
C2699      F2708   1.382       .  S
C2699      F2709   1.384       .  S
C2713      C2714   1.398       .  A
C2713      C2718   1.405       .  A
C2713      H2723   1.083       .  S
C2714      C2715   1.409       .  A
C2714      C2719   1.470       .  S
C2715      C2716   1.399       .  A
C2715      C2720   1.521       .  S
C2716      C2717   1.409       .  A
C2716      H2721   1.082       .  S
C2717      C2718   1.426       .  A
C2718      C2722   1.522       .  S
C2719      C2724   1.410       .  A
C2719      C2728   1.399       .  A
C2720      F2736   1.382       .  S
C2720      F2737   1.382       .  S
C2720      F2738   1.384       .  S
C2722      F2733   1.385       .  S
C2722      F2734   1.383       .  S
C2722      F2735   1.384       .  S
C2724      C2725   1.398       .  A
C2724      C2729   1.520       .  S
C2725      C2726   1.406       .  A
C2725      H2730   1.082       .  S
C2726      C2727   1.425       .  A
C2727      C2728   1.404       .  A
C2727      C2731   1.523       .  S
C2728      H2732   1.083       .  S
C2729      F2742   1.384       .  S
C2729      F2743   1.382       .  S
C2729      F2744   1.382       .  S
C2731      F2739   1.385       .  S
C2731      F2740   1.383       .  S
C2731      F2741   1.383       .  S
C2745      C2746   1.399       .  A
C2745      C2750   1.405       .  A
C2745      H2755   1.083       .  S
C2746      C2747   1.414       .  A
C2746      C2751   1.481       .  S
C2747      C2748   1.406       .  A
C2747      C2752   1.520       .  S
C2748      C2749   1.407       .  A
C2748      H2753   1.083       .  S
C2749      C2750   1.423       .  A
C2750      C2754   1.521       .  S
C2751      C2756   1.414       .  A
C2751      C2760   1.402       .  A
C2752      F2768   1.382       .  S
C2752      F2769   1.382       .  S
C2752      F2770   1.385       .  S
C2754      F2765   1.385       .  S
C2754      F2766   1.383       .  S
C2754      F2767   1.384       .  S
C2756      C2757   1.405       .  A
C2756      C2761   1.521       .  S
C2757      C2758   1.407       .  A
C2757      H2762   1.082       .  S
C2758      C2759   1.418       .  A
C2759      C2760   1.407       .  A
C2759      C2763   1.518       .  S
C2760      H2764   1.083       .  S
C2761      F2774   1.385       .  S
C2761      F2775   1.382       .  S
C2761      F2776   1.382       .  S
C2763      F2771   1.385       .  S
C2763      F2772   1.383       .  S
C2763      F2773   1.382       .  S
C2777      C2778   1.399       .  A
C2777      C2782   1.400       .  A
C2777      H2787   1.084       .  S
C2778      C2779   1.415       .  A
C2778      C2783   1.479       .  S
C2779      C2780   1.407       .  A
C2779      C2784   1.519       .  S
C2780      C2781   1.407       .  A
C2780      H2785   1.083       .  S
C2781      C2782   1.420       .  A
C2782      C2786   1.520       .  S
C2783      C2788   1.417       .  A
C2783      C2792   1.401       .  A
C2784      F2800   1.382       .  S
C2784      F2801   1.382       .  S
C2784      F2802   1.385       .  S
C2786      F2797   1.385       .  S
C2786      F2798   1.382       .  S
C2786      F2799   1.384       .  S
C2788      C2789   1.405   1_565  A
C2788      C2793   1.520       .  S
C2789      C2790   1.402       .  A
C2789      H2794   1.084       .  S
C2790      C2791   1.415       .  A
C2791      C2792   1.400   1_545  A
C2791      C2795   1.518       .  S
C2792      H2796   1.084       .  S
C2793      F2806   1.385       .  S
C2793      F2807   1.381       .  S
C2793      F2808   1.382       .  S
C2795      F2803   1.382       .  S
C2795      F2804   1.382       .  S
C2795      F2805   1.384   1_545  S
C2809      C2810   1.400       .  A
C2809      C2814   1.404       .  A
C2809      H2819   1.083       .  S
C2810      C2811   1.416       .  A
C2810      C2815   1.479       .  S
C2811      C2812   1.406       .  A
C2811      C2816   1.520       .  S
C2812      C2813   1.403       .  A
C2812      H2817   1.083       .  S
C2813      C2814   1.419       .  A
C2814      C2818   1.520       .  S
C2815      C2820   1.416       .  A
C2815      C2824   1.399       .  A
C2816      F2832   1.382       .  S
C2816      F2833   1.382       .  S
C2816      F2834   1.384       .  S
C2818      F2829   1.384       .  S
C2818      F2830   1.384       .  S
C2818      F2831   1.383       .  S
C2820      C2821   1.408       .  A
C2820      C2825   1.519       .  S
C2821      C2822   1.402       .  A
C2821      H2826   1.083       .  S
C2822      C2823   1.419       .  A
C2823      C2824   1.403       .  A
C2823      C2827   1.521       .  S
C2824      H2828   1.083       .  S
C2825      F2838   1.384       .  S
C2825      F2839   1.382       .  S
C2825      F2840   1.382       .  S
C2827      F2835   1.382       .  S
C2827      F2836   1.384       .  S
C2827      F2837   1.384       .  S
C2841      C2842   1.399       .  A
C2841      C2846   1.404       .  A
C2841      H2851   1.083       .  S
C2842      C2843   1.414       .  A
C2842      C2847   1.480       .  S
C2843      C2844   1.406       .  A
C2843      C2848   1.519       .  S
C2844      C2845   1.405       .  A
C2844      H2849   1.083       .  S
C2845      C2846   1.423       .  A
C2846      C2850   1.522       .  S
C2847      C2852   1.413       .  A
C2847      C2856   1.397       .  A
C2848      F2864   1.382       .  S
C2848      F2865   1.382       .  S
C2848      F2866   1.384       .  S
C2850      F2861   1.383       .  S
C2850      F2862   1.385       .  S
C2850      F2863   1.384       .  S
C2852      C2853   1.407       .  A
C2852      C2857   1.521       .  S
C2853      C2854   1.410       .  A
C2853      H2858   1.083       .  S
C2854      C2855   1.426       .  A
C2855      C2856   1.405       .  A
C2855      C2859   1.521       .  S
C2856      H2860   1.083       .  S
C2857      F2870   1.384       .  S
C2857      F2871   1.382       .  S
C2857      F2872   1.382       .  S
C2859      F2867   1.382       .  S
C2859      F2868   1.384       .  S
C2859      F2869   1.385       .  S
C2873      C2874   1.400       .  A
C2873      C2878   1.402       .  A
C2873      H2883   1.083       .  S
C2874      C2875   1.414       .  A
C2874      C2879   1.476   1_455  S
C2875      C2876   1.406       .  A
C2875      C2880   1.518       .  S
C2876      C2877   1.402       .  A
C2876      H2881   1.083       .  S
C2877      C2878   1.413       .  A
C2878      C2882   1.517       .  S
C2879      C2884   1.412       .  A
C2879      C2888   1.399       .  A
C2880      F2896   1.383       .  S
C2880      F2897   1.382       .  S
C2880      F2898   1.385       .  S
C2882      F2893   1.382       .  S
C2882      F2894   1.385       .  S
C2882      F2895   1.383       .  S
C2884      C2885   1.399       .  A
C2884      C2889   1.524       .  S
C2885      C2886   1.410       .  A
C2885      H2890   1.082       .  S
C2886      C2887   1.426       .  A
C2887      C2888   1.410       .  A
C2887      C2891   1.519       .  S
C2888      H2892   1.083       .  S
C2889      F2902   1.385       .  S
C2889      F2903   1.383   1_655  S
C2889      F2904   1.381   1_655  S
C2891      F2899   1.385       .  S
C2891      F2900   1.384       .  S
C2891      F2901   1.382       .  S
C2905      C2906   1.401       .  A
C2905      C2910   1.407       .  A
C2905      H2915   1.083       .  S
C2906      C2907   1.415       .  A
C2906      C2911   1.483       .  S
C2907      C2908   1.407       .  A
C2907      C2912   1.520       .  S
C2908      C2909   1.406       .  A
C2908      H2913   1.083       .  S
C2909      C2910   1.419       .  A
C2910      C2914   1.517       .  S
C2911      C2916   1.413       .  A
C2911      C2920   1.401       .  A
C2912      F2928   1.382       .  S
C2912      F2929   1.382       .  S
C2912      F2930   1.384       .  S
C2914      F2925   1.381       .  S
C2914      F2926   1.385       .  S
C2914      F2927   1.384       .  S
C2916      C2917   1.404       .  A
C2916      C2921   1.521       .  S
C2917      C2918   1.409       .  A
C2917      H2922   1.083       .  S
C2918      C2919   1.422       .  A
C2919      C2920   1.409       .  A
C2919      C2923   1.517       .  S
C2920      H2924   1.083       .  S
C2921      F2934   1.385       .  S
C2921      F2935   1.382       .  S
C2921      F2936   1.382       .  S
C2923      F2931   1.379       .  S
C2923      F2932   1.383       .  S
C2923      F2933   1.385       .  S
C2937      C2938   1.399       .  A
C2937      C2942   1.407       .  A
C2937      H2947   1.083       .  S
C2938      C2939   1.413       .  A
C2938      C2943   1.484       .  S
C2939      C2940   1.406       .  A
C2939      C2944   1.520       .  S
C2940      C2941   1.410       .  A
C2940      H2945   1.082       .  S
C2941      C2942   1.428       .  A
C2942      C2946   1.523       .  S
C2943      C2948   1.412       .  A
C2943      C2952   1.401       .  A
C2944      F2960   1.382       .  S
C2944      F2961   1.383       .  S
C2944      F2962   1.385       .  S
C2946      F2957   1.384       .  S
C2946      F2958   1.385       .  S
C2946      F2959   1.383       .  S
C2948      C2949   1.404       .  A
C2948      C2953   1.521       .  S
C2949      C2950   1.409       .  A
C2949      H2954   1.082       .  S
C2950      C2951   1.425       .  A
C2951      C2952   1.410       .  A
C2951      C2955   1.521       .  S
C2952      H2956   1.083       .  S
C2953      F2966   1.384       .  S
C2953      F2967   1.382       .  S
C2953      F2968   1.383       .  S
C2955      F2963   1.383       .  S
C2955      F2964   1.384       .  S
C2955      F2965   1.385       .  S
C2969      C2970   1.402       .  A
C2969      C2974   1.404       .  A
C2969      H2979   1.083       .  S
C2970      C2971   1.416       .  A
C2970      C2975   1.483       .  S
C2971      C2972   1.408       .  A
C2971      C2976   1.519       .  S
C2972      C2973   1.403       .  A
C2972      H2977   1.083       .  S
C2973      C2974   1.416       .  A
C2974      C2978   1.519       .  S
C2975      C2980   1.415       .  A
C2975      C2984   1.400       .  A
C2976      F2992   1.382       .  S
C2976      F2993   1.382       .  S
C2976      F2994   1.384       .  S
C2978      F2989   1.384       .  S
C2978      F2990   1.385       .  S
C2978      F2991   1.382       .  S
C2980      C2981   1.408   1_565  A
C2980      C2985   1.519       .  S
C2981      C2982   1.406       .  A
C2981      H2986   1.080       .  S
C2982      C2983   1.421       .  A
C2983      C2984   1.403   1_545  A
C2983      C2987   1.519       .  S
C2984      H2988   1.084       .  S
C2985      F2998   1.385       .  S
C2985      F2999   1.382       .  S
C2985      F3000   1.382       .  S
C2987      F2995   1.385       .  S
C2987      F2996   1.382       .  S
C2987      F2997   1.384       .  S
C3001      C3002   1.401       .  A
C3001      C3006   1.406       .  A
C3001      H3011   1.083       .  S
C3002      C3003   1.415       .  A
C3002      C3007   1.481       .  S
C3003      C3004   1.405       .  A
C3003      C3008   1.519       .  S
C3004      C3005   1.404       .  A
C3004      H3009   1.082       .  S
C3005      C3006   1.420       .  A
C3006      C3010   1.520       .  S
C3007      C3012   1.413       .  A
C3007      C3016   1.397       .  A
C3008      F3024   1.383       .  S
C3008      F3025   1.382       .  S
C3008      F3026   1.385       .  S
C3010      F3021   1.382       .  S
C3010      F3022   1.384       .  S
C3010      F3023   1.384       .  S
C3012      C3013   1.408       .  A
C3012      C3017   1.520       .  S
C3013      C3014   1.409       .  A
C3013      H3018   1.083       .  S
C3014      C3015   1.429       .  A
C3015      C3016   1.407       .  A
C3015      C3019   1.522       .  S
C3016      H3020   1.083       .  S
C3017      F3030   1.384       .  S
C3017      F3031   1.383       .  S
C3017      F3032   1.382       .  S
C3019      F3027   1.383       .  S
C3019      F3028   1.383       .  S
C3019      F3029   1.385       .  S
C3033      C3034   1.400       .  A
C3033      C3038   1.406       .  A
C3033      H3043   1.083       .  S
C3034      C3035   1.413       .  A
C3034      C3039   1.478       .  S
C3035      C3036   1.404       .  A
C3035      C3040   1.521       .  S
C3036      C3037   1.408       .  A
C3036      H3041   1.083       .  S
C3037      C3038   1.421       .  A
C3038      C3042   1.519       .  S
C3039      C3044   1.414       .  A
C3039      C3048   1.398       .  A
C3040      F3056   1.382       .  S
C3040      F3057   1.382       .  S
C3040      F3058   1.384       .  S
C3042      F3053   1.385       .  S
C3042      F3054   1.382       .  S
C3042      F3055   1.384       .  S
C3044      C3045   1.406       .  A
C3044      C3049   1.520       .  S
C3045      C3046   1.407       .  A
C3045      H3050   1.083       .  S
C3046      C3047   1.423       .  A
C3047      C3048   1.404       .  A
C3047      C3051   1.522       .  S
C3048      H3052   1.083       .  S
C3049      F3062   1.384       .  S
C3049      F3063   1.382       .  S
C3049      F3064   1.382       .  S
C3051      F3059   1.385       .  S
C3051      F3060   1.384       .  S
C3051      F3061   1.382       .  S
C3065      C3066   1.402       .  A
C3065      C3070   1.408       .  A
C3065      H3075   1.083       .  S
C3066      C3067   1.415       .  A
C3066      C3071   1.479   1_655  S
C3067      C3068   1.402       .  A
C3067      C3072   1.520       .  S
C3068      C3069   1.402       .  A
C3068      H3073   1.084       .  S
C3069      C3070   1.416       .  A
C3070      C3074   1.517       .  S
C3071      C3076   1.413       .  A
C3071      C3080   1.400       .  A
C3072      F3088   1.382   1_655  S
C3072      F3089   1.382   1_655  S
C3072      F3090   1.385       .  S
C3074      F3085   1.385       .  S
C3074      F3086   1.382       .  S
C3074      F3087   1.383       .  S
C3076      C3077   1.402       .  A
C3076      C3081   1.521       .  S
C3077      C3078   1.406       .  A
C3077      H3082   1.080       .  S
C3078      C3079   1.423       .  A
C3079      C3080   1.408       .  A
C3079      C3083   1.519       .  S
C3080      H3084   1.083       .  S
C3081      F3094   1.385       .  S
C3081      F3095   1.382   1_455  S
C3081      F3096   1.382   1_455  S
C3083      F3091   1.383       .  S
C3083      F3092   1.383       .  S
C3083      F3093   1.385       .  S
C3097      C3098   1.403       .  A
C3097      C3102   1.408       .  A
C3097      H3107   1.083       .  S
C3098      C3099   1.413       .  A
C3098      C3103   1.480       .  S
C3099      C3100   1.405       .  A
C3099      C3104   1.520       .  S
C3100      C3101   1.405       .  A
C3100      H3105   1.083       .  S
C3101      C3102   1.416       .  A
C3102      C3106   1.517       .  S
C3103      C3108   1.416       .  A
C3103      C3112   1.402       .  A
C3104      F3120   1.382       .  S
C3104      F3121   1.381       .  S
C3104      F3122   1.384       .  S
C3106      F3117   1.385       .  S
C3106      F3118   1.382       .  S
C3106      F3119   1.383       .  S
C3108      C3109   1.405       .  A
C3108      C3113   1.521       .  S
C3109      C3110   1.403       .  A
C3109      H3114   1.083       .  S
C3110      C3111   1.413       .  A
C3111      C3112   1.406       .  A
C3111      C3115   1.516       .  S
C3112      H3116   1.083       .  S
C3113      F3126   1.385       .  S
C3113      F3127   1.382       .  S
C3113      F3128   1.381       .  S
C3115      F3123   1.384       .  S
C3115      F3124   1.383       .  S
C3115      F3125   1.380       .  S
C3129      C3130   1.402       .  A
C3129      C3134   1.408       .  A
C3129      H3139   1.083       .  S
C3130      C3131   1.417       .  A
C3130      C3135   1.488       .  S
C3131      C3132   1.408       .  A
C3131      C3136   1.519       .  S
C3132      C3133   1.405       .  A
C3132      H3137   1.083       .  S
C3133      C3134   1.418       .  A
C3134      C3138   1.518       .  S
C3135      C3140   1.417       .  A
C3135      C3144   1.403       .  A
C3136      F3152   1.382       .  S
C3136      F3153   1.382       .  S
C3136      F3154   1.385       .  S
C3138      F3149   1.385       .  S
C3138      F3150   1.382       .  S
C3138      F3151   1.384       .  S
C3140      C3141   1.409       .  A
C3140      C3145   1.520       .  S
C3141      C3142   1.405       .  A
C3141      H3146   1.082       .  S
C3142      C3143   1.417       .  A
C3143      C3144   1.408       .  A
C3143      C3147   1.518       .  S
C3144      H3148   1.083       .  S
C3145      F3158   1.385       .  S
C3145      F3159   1.382       .  S
C3145      F3160   1.382       .  S
C3147      F3155   1.385       .  S
C3147      F3156   1.384       .  S
C3147      F3157   1.382       .  S
C3161      C3162   1.403       .  A
C3161      C3166   1.411       .  A
C3161      H3171   1.083       .  S
C3162      C3163   1.415       .  A
C3162      C3167   1.484   1_556  S
C3163      C3164   1.401       .  A
C3163      C3168   1.521       .  S
C3164      C3165   1.402       .  A
C3164      H3169   1.079       .  S
C3165      C3166   1.422       .  A
C3166      C3170   1.519       .  S
C3167      C3172   1.414       .  A
C3167      C3176   1.404       .  A
C3168      F3184   1.381       .  S
C3168      F3185   1.382       .  S
C3168      F3186   1.385       .  S
C3170      F3181   1.385       .  S
C3170      F3182   1.382       .  S
C3170      F3183   1.383       .  S
C3172      C3173   1.402       .  A
C3172      C3177   1.519       .  S
C3173      C3174   1.404       .  A
C3173      H3178   1.083       .  S
C3174      C3175   1.416       .  A
C3175      C3176   1.409       .  A
C3175      C3179   1.515       .  S
C3176      H3180   1.083       .  S
C3177      F3190   1.385       .  S
C3177      F3191   1.382       .  S
C3177      F3192   1.382       .  S
C3179      F3187   1.381       .  S
C3179      F3188   1.383       .  S
C3179      F3189   1.385       .  S
C3193      C3194   1.400       .  A
C3193      C3198   1.408       .  A
C3193      H3203   1.083       .  S
C3194      C3195   1.415       .  A
C3194      C3199   1.488       .  S
C3195      C3196   1.408       .  A
C3195      C3200   1.520       .  S
C3196      C3197   1.408       .  A
C3196      H3201   1.083       .  S
C3197      C3198   1.425       .  A
C3198      C3202   1.520       .  S
C3199      C3204   1.414       .  A
C3199      C3208   1.402       .  A
C3200      F3216   1.382       .  S
C3200      F3217   1.383       .  S
C3200      F3218   1.384       .  S
C3202      F3213   1.385       .  S
C3202      F3214   1.382       .  S
C3202      F3215   1.384       .  S
C3204      C3205   1.405       .  A
C3204      C3209   1.521       .  S
C3205      C3206   1.409       .  A
C3205      H3210   1.082       .  S
C3206      C3207   1.424       .  A
C3207      C3208   1.410       .  A
C3207      C3211   1.520       .  S
C3208      H3212   1.083       .  S
C3209      F3222   1.385       .  S
C3209      F3223   1.382       .  S
C3209      F3224   1.383       .  S
C3211      F3219   1.385       .  S
C3211      F3220   1.383       .  S
C3211      F3221   1.383       .  S
C3225      C3226   1.400       .  A
C3225      C3230   1.410       .  A
C3225      H3235   1.083       .  S
C3226      C3227   1.412       .  A
C3226      C3231   1.487       .  S
C3227      C3228   1.406       .  A
C3227      C3232   1.521       .  S
C3228      C3229   1.412       .  A
C3228      H3233   1.082       .  S
C3229      C3230   1.429       .  A
C3230      C3234   1.521       .  S
C3231      C3236   1.413       .  A
C3231      C3240   1.401       .  A
C3232      F3248   1.382       .  S
C3232      F3249   1.382       .  S
C3232      F3250   1.385       .  S
C3234      F3245   1.385       .  S
C3234      F3246   1.383       .  S
C3234      F3247   1.383       .  S
C3236      C3237   1.406       .  A
C3236      C3241   1.521       .  S
C3237      C3238   1.412       .  A
C3237      H3242   1.082       .  S
C3238      C3239   1.424       .  A
C3239      C3240   1.409       .  A
C3239      C3243   1.519       .  S
C3240      H3244   1.083       .  S
C3241      F3254   1.385       .  S
C3241      F3255   1.382       .  S
C3241      F3256   1.382       .  S
C3243      F3251   1.384       .  S
C3243      F3252   1.383       .  S
C3243      F3253   1.383       .  S
C3257      C3258   1.401       .  A
C3257      C3262   1.405       .  A
C3257      H3267   1.084       .  S
C3258      C3259   1.417       .  A
C3258      C3263   1.490   1_655  S
C3259      C3260   1.411       .  A
C3259      C3264   1.517       .  S
C3260      C3261   1.405       .  A
C3260      H3265   1.082       .  S
C3261      C3262   1.421       .  A
C3262      C3266   1.519       .  S
C3263      C3268   1.420       .  A
C3263      C3272   1.404       .  A
C3264      F3280   1.381       .  S
C3264      F3281   1.381       .  S
C3264      F3282   1.385       .  S
C3266      F3277   1.385       .  S
C3266      F3278   1.382       .  S
C3266      F3279   1.384       .  S
C3268      C3269   1.411       .  A
C3268      C3273   1.520       .  S
C3269      C3270   1.402       .  A
C3269      H3274   1.083       .  S
C3270      C3271   1.415       .  A
C3271      C3272   1.406       .  A
C3271      C3275   1.518       .  S
C3272      H3276   1.083       .  S
C3273      F3286   1.385       .  S
C3273      F3287   1.381   1_455  S
C3273      F3288   1.382   1_455  S
C3275      F3283   1.384       .  S
C3275      F3284   1.382       .  S
C3275      F3285   1.384       .  S
C3289      C3290   1.402       .  A
C3289      C3294   1.411       .  A
C3289      H3299   1.083       .  S
C3290      C3291   1.415       .  A
C3290      C3295   1.490       .  S
C3291      C3292   1.410       .  A
C3291      C3296   1.520       .  S
C3292      C3293   1.409       .  A
C3292      H3297   1.083       .  S
C3293      C3294   1.423       .  A
C3294      C3298   1.518       .  S
C3295      C3300   1.416       .  A
C3295      C3304   1.403       .  A
C3296      F3312   1.382       .  S
C3296      F3313   1.381       .  S
C3296      F3314   1.384       .  S
C3298      F3309   1.385       .  S
C3298      F3310   1.383       .  S
C3298      F3311   1.383       .  S
C3300      C3301   1.407       .  A
C3300      C3305   1.518       .  S
C3301      C3302   1.405       .  A
C3301      H3306   1.082       .  S
C3302      C3303   1.422       .  A
C3303      C3304   1.410       .  A
C3303      C3307   1.520       .  S
C3304      H3308   1.083       .  S
C3305      F3318   1.385       .  S
C3305      F3319   1.382       .  S
C3305      F3320   1.381       .  S
C3307      F3315   1.385       .  S
C3307      F3316   1.383       .  S
C3307      F3317   1.383       .  S
C3321      C3322   1.398       .  A
C3321      C3326   1.404       .  A
C3321      H3331   1.084       .  S
C3322      C3323   1.416       .  A
C3322      C3327   1.483       .  S
C3323      C3324   1.409       .  A
C3323      C3328   1.519       .  S
C3324      C3325   1.406       .  A
C3324      H3329   1.082       .  S
C3325      C3326   1.420       .  A
C3326      C3330   1.517       .  S
C3327      C3332   1.415       .  A
C3327      C3336   1.403       .  A
C3328      F3344   1.382       .  S
C3328      F3345   1.383       .  S
C3328      F3346   1.384       .  S
C3330      F3341   1.385       .  S
C3330      F3342   1.382       .  S
C3330      F3343   1.384       .  S
C3332      C3333   1.405       .  A
C3332      C3337   1.520       .  S
C3333      C3334   1.403       .  A
C3333      H3338   1.083       .  S
C3334      C3335   1.417       .  A
C3335      C3336   1.408       .  A
C3335      C3339   1.518       .  S
C3336      H3340   1.083       .  S
C3337      F3350   1.385       .  S
C3337      F3351   1.382       .  S
C3337      F3352   1.383       .  S
C3339      F3347   1.384       .  S
C3339      F3348   1.383       .  S
C3339      F3349   1.380       .  S
C3353      C3354   1.398       .  A
C3353      C3358   1.411       .  A
C3353      H3363   1.083       .  S
C3354      C3355   1.413       .  A
C3354      C3359   1.483       .  S
C3355      C3356   1.405       .  A
C3355      C3360   1.522       .  S
C3356      C3357   1.412       .  A
C3356      H3361   1.082       .  S
C3357      C3358   1.429       .  A
C3358      C3362   1.519       .  S
C3359      C3364   1.416       .  A
C3359      C3368   1.401       .  A
C3360      F3376   1.383       .  S
C3360      F3377   1.383       .  S
C3360      F3378   1.384       .  S
C3362      F3373   1.383       .  S
C3362      F3374   1.385       .  S
C3362      F3375   1.383       .  S
C3364      C3365   1.407   1_565  A
C3364      C3369   1.518       .  S
C3365      C3366   1.403       .  A
C3365      H3370   1.083       .  S
C3366      C3367   1.416       .  A
C3367      C3368   1.405   1_545  A
C3367      C3371   1.518       .  S
C3368      H3372   1.083       .  S
C3369      F3382   1.385       .  S
C3369      F3383   1.382       .  S
C3369      F3384   1.382       .  S
C3371      F3379   1.384   1_545  S
C3371      F3380   1.384       .  S
C3371      F3381   1.382       .  S
C3385      C3386   1.402       .  A
C3385      C3390   1.405       .  A
C3385      H3395   1.083       .  S
C3386      C3387   1.417       .  A
C3386      C3391   1.477       .  S
C3387      C3388   1.404       .  A
C3387      C3392   1.521       .  S
C3388      C3389   1.400       .  A
C3388      H3393   1.084       .  S
C3389      C3390   1.412       .  A
C3390      C3394   1.516       .  S
C3391      C3396   1.415       .  A
C3391      C3400   1.403       .  A
C3392      F3408   1.381       .  S
C3392      F3409   1.382       .  S
C3392      F3410   1.384       .  S
C3394      F3405   1.381       .  S
C3394      F3406   1.385       .  S
C3394      F3407   1.383       .  S
C3396      C3397   1.403       .  A
C3396      C3401   1.520       .  S
C3397      C3398   1.402       .  A
C3397      H3402   1.083       .  S
C3398      C3399   1.414       .  A
C3399      C3400   1.405       .  A
C3399      C3403   1.517       .  S
C3400      H3404   1.083       .  S
C3401      F3414   1.385       .  S
C3401      F3415   1.382       .  S
C3401      F3416   1.382       .  S
C3403      F3411   1.385       .  S
C3403      F3412   1.382       .  S
C3403      F3413   1.382       .  S
C3417      C3418   1.404       .  A
C3417      C3422   1.407       .  A
C3417      H3427   1.083       .  S
C3418      C3419   1.421       .  A
C3418      C3423   1.487       .  S
C3419      C3420   1.407       .  A
C3419      C3424   1.519       .  S
C3420      C3421   1.401       .  A
C3420      H3425   1.085       .  S
C3421      C3422   1.416       .  A
C3422      C3426   1.519       .  S
C3423      C3428   1.416       .  A
C3423      C3432   1.403       .  A
C3424      F3440   1.383       .  S
C3424      F3441   1.381       .  S
C3424      F3442   1.384       .  S
C3426      F3437   1.384       .  S
C3426      F3438   1.382       .  S
C3426      F3439   1.383       .  S
C3428      C3429   1.407       .  A
C3428      C3433   1.519       .  S
C3429      C3430   1.405       .  A
C3429      H3434   1.083       .  S
C3430      C3431   1.418       .  A
C3431      C3432   1.409       .  A
C3431      C3435   1.518       .  S
C3432      H3436   1.083       .  S
C3433      F3446   1.385       .  S
C3433      F3447   1.382       .  S
C3433      F3448   1.383       .  S
C3435      F3443   1.384       .  S
C3435      F3444   1.382       .  S
C3435      F3445   1.384       .  S
C3449      C3450   1.402       .  A
C3449      C3454   1.403       .  A
C3449      H3459   1.083       .  S
C3450      C3451   1.415       .  A
C3450      C3455   1.477       .  S
C3451      C3452   1.404       .  A
C3451      C3456   1.518       .  S
C3452      C3453   1.401       .  A
C3452      H3457   1.083       .  S
C3453      C3454   1.415       .  A
C3454      C3458   1.519       .  S
C3455      C3460   1.415       .  A
C3455      C3464   1.400       .  A
C3456      F3472   1.382       .  S
C3456      F3473   1.382       .  S
C3456      F3474   1.384       .  S
C3458      F3469   1.385       .  S
C3458      F3470   1.382       .  S
C3458      F3471   1.383   1_545  S
C3460      C3461   1.405       .  A
C3460      C3465   1.519       .  S
C3461      C3462   1.403       .  A
C3461      H3466   1.083       .  S
C3462      C3463   1.415       .  A
C3463      C3464   1.403       .  A
C3463      C3467   1.517       .  S
C3464      H3468   1.083       .  S
C3465      F3478   1.385       .  S
C3465      F3479   1.382       .  S
C3465      F3480   1.382       .  S
C3467      F3475   1.385       .  S
C3467      F3476   1.383       .  S
C3467      F3477   1.381       .  S
C3481      C3482   1.402       .  A
C3481      C3486   1.407       .  A
C3481      H3491   1.083       .  S
C3482      C3483   1.416       .  A
C3482      C3487   1.483       .  S
C3483      C3484   1.406       .  A
C3483      C3488   1.519       .  S
C3484      C3485   1.402       .  A
C3484      H3489   1.083       .  S
C3485      C3486   1.417       .  A
C3486      C3490   1.518       .  S
C3487      C3492   1.417       .  A
C3487      C3496   1.402       .  A
C3488      F3504   1.382       .  S
C3488      F3505   1.382       .  S
C3488      F3506   1.384       .  S
C3490      F3501   1.382       .  S
C3490      F3502   1.385       .  S
C3490      F3503   1.382       .  S
C3492      C3493   1.408       .  A
C3492      C3497   1.519       .  S
C3493      C3494   1.401       .  A
C3493      H3498   1.083       .  S
C3494      C3495   1.413       .  A
C3495      C3496   1.404       .  A
C3495      C3499   1.519       .  S
C3496      H3500   1.083       .  S
C3497      F3510   1.384       .  S
C3497      F3511   1.382       .  S
C3497      F3512   1.382       .  S
C3499      F3507   1.384       .  S
C3499      F3508   1.383       .  S
C3499      F3509   1.383       .  S
C3513      C3514   1.401       .  A
C3513      C3518   1.403       .  A
C3513      H3523   1.083       .  S
C3514      C3515   1.416       .  A
C3514      C3519   1.482       .  S
C3515      C3516   1.408       .  A
C3515      C3520   1.518       .  S
C3516      C3517   1.403       .  A
C3516      H3521   1.083       .  S
C3517      C3518   1.415       .  A
C3518      C3522   1.518       .  S
C3519      C3524   1.418       .  A
C3519      C3528   1.400       .  A
C3520      F3536   1.382       .  S
C3520      F3537   1.382       .  S
C3520      F3538   1.384       .  S
C3522      F3533   1.385       .  S
C3522      F3534   1.381       .  S
C3522      F3535   1.383       .  S
C3524      C3525   1.406       .  A
C3524      C3529   1.521       .  S
C3525      C3526   1.402       .  A
C3525      H3530   1.083       .  S
C3526      C3527   1.417       .  A
C3527      C3528   1.406       .  A
C3527      C3531   1.518       .  S
C3528      H3532   1.083       .  S
C3529      F3542   1.385       .  S
C3529      F3543   1.381       .  S
C3529      F3544   1.383       .  S
C3531      F3539   1.384       .  S
C3531      F3540   1.383       .  S
C3531      F3541   1.383       .  S
C3545      C3546   1.402       .  A
C3545      C3550   1.404       .  A
C3545      H3555   1.083       .  S
C3546      C3547   1.416       .  A
C3546      C3551   1.479       .  S
C3547      C3548   1.406       .  A
C3547      C3552   1.518       .  S
C3548      C3549   1.402       .  A
C3548      H3553   1.083       .  S
C3549      C3550   1.414       .  A
C3550      C3554   1.519       .  S
C3551      C3556   1.416       .  A
C3551      C3560   1.402       .  A
C3552      F3568   1.382       .  S
C3552      F3569   1.381       .  S
C3552      F3570   1.385       .  S
C3554      F3565   1.382       .  S
C3554      F3566   1.384       .  S
C3554      F3567   1.383   1_545  S
C3556      C3557   1.407       .  A
C3556      C3561   1.520       .  S
C3557      C3558   1.402       .  A
C3557      H3562   1.083       .  S
C3558      C3559   1.413       .  A
C3559      C3560   1.404       .  A
C3559      C3563   1.517       .  S
C3560      H3564   1.083       .  S
C3561      F3574   1.384       .  S
C3561      F3575   1.382       .  S
C3561      F3576   1.382       .  S
C3563      F3571   1.383       .  S
C3563      F3572   1.383       .  S
C3563      F3573   1.385       .  S
C3577      C3578   1.402       .  A
C3577      C3582   1.405       .  A
C3577      H3587   1.083       .  S
C3578      C3579   1.416       .  A
C3578      C3583   1.481       .  S
C3579      C3580   1.408       .  A
C3579      C3584   1.520       .  S
C3580      C3581   1.402       .  A
C3580      H3585   1.083       .  S
C3581      C3582   1.416       .  A
C3582      C3586   1.519       .  S
C3583      C3588   1.416       .  A
C3583      C3592   1.400       .  A
C3584      F3600   1.382       .  S
C3584      F3601   1.381       .  S
C3584      F3602   1.384       .  S
C3586      F3597   1.384       .  S
C3586      F3598   1.383       .  S
C3586      F3599   1.384       .  S
C3588      C3589   1.409       .  A
C3588      C3593   1.519       .  S
C3589      C3590   1.404       .  A
C3589      H3594   1.083       .  S
C3590      C3591   1.416       .  A
C3591      C3592   1.402       .  A
C3591      C3595   1.519       .  S
C3592      H3596   1.083       .  S
C3593      F3606   1.385       .  S
C3593      F3607   1.382       .  S
C3593      F3608   1.381       .  S
C3595      F3603   1.383       .  S
C3595      F3604   1.380       .  S
C3595      F3605   1.384       .  S
C3609      C3610   1.402       .  A
C3609      C3614   1.407       .  A
C3609      H3619   1.083       .  S
C3610      C3611   1.416       .  A
C3610      C3615   1.487       .  S
C3611      C3612   1.409       .  A
C3611      C3616   1.519       .  S
C3612      C3613   1.404       .  A
C3612      H3617   1.083       .  S
C3613      C3614   1.417       .  A
C3614      C3618   1.519       .  S
C3615      C3620   1.417       .  A
C3615      C3624   1.404       .  A
C3616      F3632   1.382       .  S
C3616      F3633   1.382       .  S
C3616      F3634   1.384       .  S
C3618      F3629   1.385       .  S
C3618      F3630   1.381       .  S
C3618      F3631   1.383       .  S
C3620      C3621   1.406       .  A
C3620      C3625   1.519       .  S
C3621      C3622   1.402       .  A
C3621      H3626   1.083       .  S
C3622      C3623   1.417       .  A
C3623      C3624   1.410       .  A
C3623      C3627   1.519       .  S
C3624      H3628   1.083       .  S
C3625      F3638   1.384       .  S
C3625      F3639   1.382       .  S
C3625      F3640   1.382       .  S
C3627      F3635   1.385       .  S
C3627      F3636   1.384       .  S
C3627      F3637   1.382       .  S
C3641      C3642   1.401       .  A
C3641      C3646   1.402       .  A
C3641      H3651   1.083       .  S
C3642      C3643   1.415       .  A
C3642      C3647   1.473       .  S
C3643      C3644   1.403       .  A
C3643      C3648   1.519       .  S
C3644      C3645   1.399       .  A
C3644      H3649   1.084       .  S
C3645      C3646   1.411       .  A
C3646      C3650   1.517       .  S
C3647      C3652   1.414       .  A
C3647      C3656   1.400       .  A
C3648      F3664   1.382       .  S
C3648      F3665   1.381       .  S
C3648      F3666   1.385       .  S
C3650      F3661   1.384       .  S
C3650      F3662   1.383       .  S
C3650      F3663   1.381       .  S
C3652      C3653   1.404       .  A
C3652      C3657   1.519       .  S
C3653      C3654   1.402       .  A
C3653      H3658   1.083       .  S
C3654      C3655   1.416       .  A
C3655      C3656   1.402       .  A
C3655      C3659   1.519       .  S
C3656      H3660   1.083       .  S
C3657      F3670   1.385       .  S
C3657      F3671   1.382       .  S
C3657      F3672   1.382       .  S
C3659      F3667   1.385       .  S
C3659      F3668   1.381       .  S
C3659      F3669   1.382       .  S
C3673      C3674   1.402       .  A
C3673      C3678   1.406       .  A
C3673      H3683   1.083       .  S
C3674      C3675   1.417       .  A
C3674      C3679   1.481       .  S
C3675      C3676   1.404       .  A
C3675      C3680   1.521       .  S
C3676      C3677   1.402       .  A
C3676      H3681   1.083       .  S
C3677      C3678   1.414       .  A
C3678      C3682   1.517       .  S
C3679      C3684   1.415       .  A
C3679      C3688   1.400       .  A
C3680      F3696   1.382       .  S
C3680      F3697   1.382       .  S
C3680      F3698   1.385       .  S
C3682      F3693   1.385       .  S
C3682      F3694   1.382       .  S
C3682      F3695   1.383       .  S
C3684      C3685   1.409       .  A
C3684      C3689   1.519       .  S
C3685      C3686   1.405       .  A
C3685      H3690   1.083       .  S
C3686      C3687   1.418       .  A
C3687      C3688   1.403       .  A
C3687      C3691   1.520       .  S
C3688      H3692   1.083       .  S
C3689      F3702   1.384       .  S
C3689      F3703   1.382       .  S
C3689      F3704   1.383       .  S
C3691      F3699   1.384       .  S
C3691      F3700   1.384       .  S
C3691      F3701   1.383       .  S
C3705      C3706   1.400       .  A
C3705      C3710   1.404       .  A
C3705      H3715   1.083       .  S
C3706      C3707   1.415       .  A
C3706      C3711   1.477       .  S
C3707      C3708   1.405       .  A
C3707      C3712   1.519       .  S
C3708      C3709   1.402       .  A
C3708      H3713   1.083       .  S
C3709      C3710   1.417       .  A
C3710      C3714   1.519       .  S
C3711      C3716   1.414       .  A
C3711      C3720   1.400       .  A
C3712      F3728   1.382       .  S
C3712      F3729   1.382       .  S
C3712      F3730   1.385       .  S
C3714      F3725   1.382       .  S
C3714      F3726   1.385       .  S
C3714      F3727   1.381   1_545  S
C3716      C3717   1.403       .  A
C3716      C3721   1.519       .  S
C3717      C3718   1.402       .  A
C3717      H3722   1.084       .  S
C3718      C3719   1.418       .  A
C3719      C3720   1.403       .  A
C3719      C3723   1.519       .  S
C3720      H3724   1.085       .  S
C3721      F3734   1.385       .  S
C3721      F3735   1.382       .  S
C3721      F3736   1.382       .  S
C3723      F3731   1.384       .  S
C3723      F3732   1.381       .  S
C3723      F3733   1.384       .  S
C3737      C3738   1.405       .  A
C3737      C3742   1.408       .  A
C3737      H3747   1.083       .  S
C3738      C3739   1.415       .  A
C3738      C3743   1.477       .  S
C3739      C3740   1.398       .  A
C3739      C3744   1.520       .  S
C3740      C3741   1.400       .  A
C3740      H3745   1.084   1_545  S
C3741      C3742   1.413       .  A
C3742      C3746   1.516       .  S
C3743      C3748   1.416       .  A
C3743      C3752   1.399       .  A
C3744      F3760   1.382       .  S
C3744      F3761   1.382       .  S
C3744      F3762   1.385       .  S
C3746      F3757   1.382       .  S
C3746      F3758   1.385       .  S
C3746      F3759   1.383       .  S
C3748      C3749   1.407       .  A
C3748      C3753   1.520       .  S
C3749      C3750   1.403       .  A
C3749      H3754   1.083       .  S
C3750      C3751   1.415       .  A
C3751      C3752   1.403       .  A
C3751      C3755   1.517       .  S
C3752      H3756   1.083       .  S
C3753      F3766   1.385       .  S
C3753      F3767   1.383       .  S
C3753      F3768   1.382       .  S
C3755      F3763   1.385       .  S
C3755      F3764   1.381       .  S
C3755      F3765   1.383       .  S
C3769      C3770   1.401       .  A
C3769      C3774   1.401       .  A
C3769      H3779   1.083       .  S
C3770      C3771   1.414       .  A
C3770      C3775   1.470       .  S
C3771      C3772   1.400       .  A
C3771      C3776   1.519       .  S
C3772      C3773   1.399       .  A
C3772      H3777   1.083       .  S
C3773      C3774   1.414       .  A
C3774      C3778   1.520       .  S
C3775      C3780   1.413       .  A
C3775      C3784   1.399       .  A
C3776      F3792   1.382       .  S
C3776      F3793   1.383       .  S
C3776      F3794   1.385       .  S
C3778      F3789   1.384       .  S
C3778      F3790   1.381       .  S
C3778      F3791   1.383       .  S
C3780      C3781   1.401       .  A
C3780      C3785   1.520       .  S
C3781      C3782   1.402       .  A
C3781      H3786   1.084       .  S
C3782      C3783   1.417       .  A
C3783      C3784   1.402       .  A
C3783      C3787   1.518       .  S
C3784      H3788   1.083       .  S
C3785      F3798   1.384       .  S
C3785      F3799   1.382       .  S
C3785      F3800   1.383       .  S
C3787      F3795   1.385       .  S
C3787      F3796   1.384       .  S
C3787      F3797   1.381       .  S
C3801      C3802   1.401       .  A
C3801      C3806   1.405       .  A
C3801      H3811   1.083       .  S
C3802      C3803   1.415       .  A
C3802      C3807   1.478       .  S
C3803      C3804   1.404       .  A
C3803      C3808   1.520       .  S
C3804      C3805   1.402       .  A
C3804      H3809   1.083       .  S
C3805      C3806   1.414       .  A
C3806      C3810   1.518       .  S
C3807      C3812   1.415       .  A
C3807      C3816   1.401       .  A
C3808      F3824   1.383       .  S
C3808      F3825   1.382       .  S
C3808      F3826   1.384       .  S
C3810      F3821   1.382       .  S
C3810      F3822   1.384       .  S
C3810      F3823   1.384       .  S
C3812      C3813   1.404       .  A
C3812      C3817   1.520       .  S
C3813      C3814   1.402       .  A
C3813      H3818   1.083       .  S
C3814      C3815   1.416       .  A
C3815      C3816   1.407       .  A
C3815      C3819   1.517       .  S
C3816      H3820   1.083       .  S
C3817      F3830   1.384       .  S
C3817      F3831   1.382       .  S
C3817      F3832   1.382       .  S
C3819      F3827   1.382       .  S
C3819      F3828   1.383       .  S
C3819      F3829   1.385       .  S
C3833      C3834   1.402       .  A
C3833      C3838   1.405       .  A
C3833      H3843   1.083       .  S
C3834      C3835   1.415       .  A
C3834      C3839   1.482       .  S
C3835      C3836   1.408       .  A
C3835      C3840   1.519       .  S
C3836      C3837   1.403       .  A
C3836      H3841   1.083       .  S
C3837      C3838   1.416       .  A
C3838      C3842   1.521       .  S
C3839      C3844   1.416       .  A
C3839      C3848   1.401       .  A
C3840      F3856   1.382       .  S
C3840      F3857   1.381       .  S
C3840      F3858   1.384       .  S
C3842      F3853   1.384       .  S
C3842      F3854   1.383       .  S
C3842      F3855   1.381       .  S
C3844      C3845   1.408       .  A
C3844      C3849   1.520       .  S
C3845      C3846   1.403       .  A
C3845      H3850   1.083       .  S
C3846      C3847   1.416       .  A
C3847      C3848   1.405       .  A
C3847      C3851   1.519       .  S
C3848      H3852   1.083       .  S
C3849      F3862   1.384       .  S
C3849      F3863   1.382       .  S
C3849      F3864   1.382       .  S
C3851      F3859   1.381       .  S
C3851      F3860   1.383       .  S
C3851      F3861   1.385       .  S
C3865      C3866   1.402       .  A
C3865      C3870   1.404       .  A
C3865      H3875   1.084       .  S
C3866      C3867   1.415       .  A
C3866      C3871   1.479       .  S
C3867      C3868   1.402       .  A
C3867      C3872   1.520       .  S
C3868      C3869   1.401       .  A
C3868      H3873   1.084       .  S
C3869      C3870   1.416       .  A
C3870      C3874   1.519       .  S
C3871      C3876   1.414       .  A
C3871      C3880   1.400       .  A
C3872      F3888   1.382       .  S
C3872      F3889   1.382       .  S
C3872      F3890   1.385       .  S
C3874      F3885   1.383       .  S
C3874      F3886   1.383       .  S
C3874      F3887   1.382       .  S
C3876      C3877   1.407       .  A
C3876      C3881   1.519       .  S
C3877      C3878   1.405       .  A
C3877      H3882   1.083       .  S
C3878      C3879   1.418       .  A
C3879      C3880   1.402       .  A
C3879      C3883   1.518       .  S
C3880      H3884   1.085       .  S
C3881      F3894   1.384       .  S
C3881      F3895   1.382       .  S
C3881      F3896   1.382       .  S
C3883      F3891   1.384       .  S
C3883      F3892   1.381       .  S
C3883      F3893   1.382       .  S
C3897      C3898   1.402       .  A
C3897      C3902   1.403       .  A
C3897      H3907   1.083       .  S
C3898      C3899   1.415       .  A
C3898      C3903   1.472       .  S
C3899      C3900   1.400       .  A
C3899      C3904   1.520       .  S
C3900      C3901   1.400       .  A
C3900      H3905   1.083       .  S
C3901      C3902   1.413       .  A
C3902      C3906   1.518       .  S
C3903      C3908   1.414       .  A
C3903      C3912   1.401       .  A
C3904      F3920   1.382       .  S
C3904      F3921   1.381       .  S
C3904      F3922   1.385       .  S
C3906      F3917   1.382       .  S
C3906      F3918   1.384       .  S
C3906      F3919   1.383       .  S
C3908      C3909   1.402       .  A
C3908      C3913   1.521       .  S
C3909      C3910   1.401       .  A
C3909      H3914   1.083       .  S
C3910      C3911   1.415       .  A
C3911      C3912   1.404       .  A
C3911      C3915   1.518       .  S
C3912      H3916   1.083       .  S
C3913      F3926   1.385       .  S
C3913      F3927   1.382       .  S
C3913      F3928   1.381       .  S
C3915      F3923   1.382       .  S
C3915      F3924   1.383       .  S
C3915      F3925   1.384       .  S
C3929      C3930   1.402       .  A
C3929      C3934   1.403       .  A
C3929      H3939   1.083       .  S
C3930      C3931   1.415       .  A
C3930      C3935   1.474       .  S
C3931      C3932   1.403       .  A
C3931      C3936   1.519       .  S
C3932      C3933   1.400       .  A
C3932      H3937   1.083       .  S
C3933      C3934   1.415       .  A
C3934      C3938   1.520       .  S
C3935      C3940   1.414       .  A
C3935      C3944   1.401       .  A
C3936      F3952   1.382       .  S
C3936      F3953   1.381       .  S
C3936      F3954   1.384       .  S
C3938      F3949   1.384       .  S
C3938      F3950   1.382       .  S
C3938      F3951   1.382   1_545  S
C3940      C3941   1.405       .  A
C3940      C3945   1.520       .  S
C3941      C3942   1.403       .  A
C3941      H3946   1.083       .  S
C3942      C3943   1.413       .  A
C3943      C3944   1.402       .  A
C3943      C3947   1.517       .  S
C3944      H3948   1.083       .  S
C3945      F3958   1.385       .  S
C3945      F3959   1.382       .  S
C3945      F3960   1.381       .  S
C3947      F3955   1.385       .  S
C3947      F3956   1.383       .  S
C3947      F3957   1.382       .  S
C3961      C3962   1.401       .  A
C3961      C3966   1.406       .  A
C3961      H3971   1.083       .  S
C3962      C3963   1.417       .  A
C3962      C3967   1.480       .  S
C3963      C3964   1.406       .  A
C3963      C3968   1.520       .  S
C3964      C3965   1.401       .  A
C3964      H3969   1.083       .  S
C3965      C3966   1.414       .  A
C3966      C3970   1.517       .  S
C3967      C3972   1.417       .  A
C3967      C3976   1.401       .  A
C3968      F3984   1.382       .  S
C3968      F3985   1.382       .  S
C3968      F3986   1.385       .  S
C3970      F3981   1.382       .  S
C3970      F3982   1.385       .  S
C3970      F3983   1.383       .  S
C3972      C3973   1.407       .  A
C3972      C3977   1.517       .  S
C3973      C3974   1.401       .  A
C3973      H3978   1.083       .  S
C3974      C3975   1.416       .  A
C3975      C3976   1.402       .  A
C3975      C3979   1.520       .  S
C3976      H3980   1.083       .  S
C3977      F3990   1.385       .  S
C3977      F3991   1.382       .  S
C3977      F3992   1.382       .  S
C3979      F3987   1.382       .  S
C3979      F3988   1.382       .  S
C3979      F3989   1.385       .  S
C3993      C3994   1.403       .  A
C3993      C3998   1.405       .  A
C3993      H4003   1.083       .  S
C3994      C3995   1.416       .  A
C3994      C3999   1.477       .  S
C3995      C3996   1.403       .  A
C3995      C4000   1.519       .  S
C3996      C3997   1.399       .  A
C3996      H4001   1.084       .  S
C3997      C3998   1.411       .  A
C3998      C4002   1.516       .  S
C3999      C4004   1.415       .  A
C3999      C4008   1.401       .  A
C4000      F4016   1.382       .  S
C4000      F4017   1.382       .  S
C4000      F4018   1.385       .  S
C4002      F4013   1.384       .  S
C4002      F4014   1.383       .  S
C4002      F4015   1.382       .  S
C4004      C4005   1.403       .  A
C4004      C4009   1.520       .  S
C4005      C4006   1.402       .  A
C4005      H4010   1.083       .  S
C4006      C4007   1.416       .  A
C4007      C4008   1.403       .  A
C4007      C4011   1.518       .  S
C4008      H4012   1.085       .  S
C4009      F4022   1.385       .  S
C4009      F4023   1.382       .  S
C4009      F4024   1.382       .  S
C4011      F4019   1.383       .  S
C4011      F4020   1.382       .  S
C4011      F4021   1.383       .  S
C4025      C4026   1.404       .  A
C4025      C4030   1.407       .  A
C4025      H4035   1.083       .  S
C4026      C4027   1.418       .  A
C4026      C4031   1.484       .  S
C4027      C4028   1.406       .  A
C4027      C4032   1.519       .  S
C4028      C4029   1.399       .  A
C4028      H4033   1.083       .  S
C4029      C4030   1.413       .  A
C4030      C4034   1.517       .  S
C4031      C4036   1.416       .  A
C4031      C4040   1.399       .  A
C4032      F4048   1.382       .  S
C4032      F4049   1.382       .  S
C4032      F4050   1.385       .  S
C4034      F4045   1.385       .  S
C4034      F4046   1.383       .  S
C4034      F4047   1.383       .  S
C4036      C4037   1.411       .  A
C4036      C4041   1.519       .  S
C4037      C4038   1.405       .  A
C4037      H4042   1.083       .  S
C4038      C4039   1.419       .  A
C4039      C4040   1.402       .  A
C4039      C4043   1.520       .  S
C4040      H4044   1.085       .  S
C4041      F4054   1.384       .  S
C4041      F4055   1.382       .  S
C4041      F4056   1.382       .  S
C4043      F4051   1.383       .  S
C4043      F4052   1.381       .  S
C4043      F4053   1.383       .  S
C4057      C4058   1.400       .  A
C4057      C4062   1.404       .  A
C4057      H4067   1.083       .  S
C4058      C4059   1.416       .  A
C4058      C4063   1.480       .  S
C4059      C4060   1.407       .  A
C4059      C4064   1.518       .  S
C4060      C4061   1.402       .  A
C4060      H4065   1.083       .  S
C4061      C4062   1.418       .  A
C4062      C4066   1.520       .  S
C4063      C4068   1.415       .  A
C4063      C4072   1.403       .  A
C4064      F4080   1.383       .  S
C4064      F4081   1.382       .  S
C4064      F4082   1.384       .  S
C4066      F4077   1.384       .  S
C4066      F4078   1.382       .  S
C4066      F4079   1.383       .  S
C4068      C4069   1.404       .  A
C4068      C4073   1.520       .  S
C4069      C4070   1.402       .  A
C4069      H4074   1.083       .  S
C4070      C4071   1.413       .  A
C4071      C4072   1.408       .  A
C4071      C4075   1.517       .  S
C4072      H4076   1.083       .  S
C4073      F4086   1.384       .  S
C4073      F4087   1.383       .  S
C4073      F4088   1.382       .  S
C4075      F4083   1.384       .  S
C4075      F4084   1.384       .  S
C4075      F4085   1.382       .  S
C4089      C4090   1.400       .  A
C4089      C4094   1.404       .  A
C4089      H4099   1.083       .  S
C4090      C4091   1.414       .  A
C4090      C4095   1.476       .  S
C4091      C4092   1.404       .  A
C4091      C4096   1.520       .  S
C4092      C4093   1.404       .  A
C4092      H4097   1.083       .  S
C4093      C4094   1.417       .  A
C4094      C4098   1.519       .  S
C4095      C4100   1.415       .  A
C4095      C4104   1.400       .  A
C4096      F4112   1.382       .  S
C4096      F4113   1.382       .  S
C4096      F4114   1.385       .  S
C4098      F4109   1.382       .  S
C4098      F4110   1.385       .  S
C4098      F4111   1.384       .  S
C4100      C4101   1.405       .  A
C4100      C4105   1.520       .  S
C4101      C4102   1.403       .  A
C4101      H4106   1.083       .  S
C4102      C4103   1.417       .  A
C4103      C4104   1.403       .  A
C4103      C4107   1.520       .  S
C4104      H4108   1.083       .  S
C4105      F4118   1.384       .  S
C4105      F4119   1.382       .  S
C4105      F4120   1.382       .  S
C4107      F4115   1.381       .  S
C4107      F4116   1.383       .  S
C4107      F4117   1.385       .  S
C4121      C4122   1.403       .  A
C4121      C4126   1.402       .  A
C4121      H4131   1.083       .  S
C4122      C4123   1.417       .  A
C4122      C4127   1.476       .  S
C4123      C4124   1.404       .  A
C4123      C4128   1.520       .  S
C4124      C4125   1.400       .  A
C4124      H4129   1.083       .  S
C4125      C4126   1.410       .  A
C4126      C4130   1.517       .  S
C4127      C4132   1.415       .  A
C4127      C4136   1.403       .  A
C4128      F4144   1.382       .  S
C4128      F4145   1.381       .  S
C4128      F4146   1.385       .  S
C4130      F4141   1.384       .  S
C4130      F4142   1.383       .  S
C4130      F4143   1.383       .  S
C4132      C4133   1.403       .  A
C4132      C4137   1.521       .  S
C4133      C4134   1.402       .  A
C4133      H4138   1.083       .  S
C4134      C4135   1.414       .  A
C4135      C4136   1.405       .  A
C4135      C4139   1.518       .  S
C4136      H4140   1.083       .  S
C4137      F4150   1.384       .  S
C4137      F4151   1.382       .  S
C4137      F4152   1.381       .  S
C4139      F4147   1.385       .  S
C4139      F4148   1.382       .  S
C4139      F4149   1.382       .  S
C4153      C4154   1.403       .  A
C4153      C4158   1.408       .  A
C4153      H4163   1.085       .  S
C4154      C4155   1.417       .  A
C4154      C4159   1.490       .  S
C4155      C4156   1.408       .  A
C4155      C4160   1.519       .  S
C4156      C4157   1.403       .  A
C4156      H4161   1.083       .  S
C4157      C4158   1.420       .  A
C4158      C4162   1.519       .  S
C4159      C4164   1.418       .  A
C4159      C4168   1.404       .  A
C4160      F4176   1.382       .  S
C4160      F4177   1.382       .  S
C4160      F4178   1.384       .  S
C4162      F4173   1.381       .  S
C4162      F4174   1.383       .  S
C4162      F4175   1.384       .  S
C4164      C4165   1.407       .  A
C4164      C4169   1.519       .  S
C4165      C4166   1.401       .  A
C4165      H4170   1.083       .  S
C4166      C4167   1.417       .  A
C4167      C4168   1.409       .  A
C4167      C4171   1.519       .  S
C4168      H4172   1.083       .  S
C4169      F4182   1.385       .  S
C4169      F4183   1.382       .  S
C4169      F4184   1.382       .  S
C4171      F4179   1.384       .  S
C4171      F4180   1.384       .  S
C4171      F4181   1.382       .  S
C4185      C4186   1.403       .  A
C4185      C4190   1.405       .  A
C4185      H4195   1.083       .  S
C4186      C4187   1.421       .  A
C4186      C4191   1.485       .  S
C4187      C4188   1.407       .  A
C4187      C4192   1.519       .  S
C4188      C4189   1.402       .  A
C4188      H4193   1.085       .  S
C4189      C4190   1.415       .  A
C4190      C4194   1.519       .  S
C4191      C4196   1.416       .  A
C4191      C4200   1.402       .  A
C4192      F4208   1.384       .  S
C4192      F4209   1.381       .  S
C4192      F4210   1.383       .  S
C4194      F4205   1.382       .  S
C4194      F4206   1.384       .  S
C4194      F4207   1.383       .  S
C4196      C4197   1.409       .  A
C4196      C4201   1.518       .  S
C4197      C4198   1.403       .  A
C4197      H4202   1.083       .  S
C4198      C4199   1.417       .  A
C4199      C4200   1.407       .  A
C4199      C4203   1.518       .  S
C4200      H4204   1.083       .  S
C4201      F4214   1.385       .  S
C4201      F4215   1.383       .  S
C4201      F4216   1.381       .  S
C4203      F4211   1.382       .  S
C4203      F4212   1.383       .  S
C4203      F4213   1.385       .  S
C4217      C4218   1.402       .  A
C4217      C4222   1.408       .  A
C4217      H4227   1.083       .  S
C4218      C4219   1.418       .  A
C4218      C4223   1.485       .  S
C4219      C4220   1.407       .  A
C4219      C4224   1.520       .  S
C4220      C4221   1.400       .  A
C4220      H4225   1.083       .  S
C4221      C4222   1.415       .  A
C4222      C4226   1.517       .  S
C4223      C4228   1.416       .  A
C4223      C4232   1.401       .  A
C4224      F4240   1.382       .  S
C4224      F4241   1.383       .  S
C4224      F4242   1.384       .  S
C4226      F4237   1.382       .  S
C4226      F4238   1.384       .  S
C4226      F4239   1.383       .  S
C4228      C4229   1.407       .  A
C4228      C4233   1.518       .  S
C4229      C4230   1.403       .  A
C4229      H4234   1.083       .  S
C4230      C4231   1.417       .  A
C4231      C4232   1.406       .  A
C4231      C4235   1.518       .  S
C4232      H4236   1.083       .  S
C4233      F4246   1.385       .  S
C4233      F4247   1.383       .  S
C4233      F4248   1.382       .  S
C4235      F4243   1.383       .  S
C4235      F4244   1.383       .  S
C4235      F4245   1.384       .  S
C4249      C4250   1.404       .  A
C4249      C4254   1.409       .  A
C4249      H4259   1.083       .  S
C4250      C4251   1.417       .  A
C4250      C4255   1.490       .  S
C4251      C4252   1.407       .  A
C4251      C4256   1.519       .  S
C4252      C4253   1.402       .  A
C4252      H4257   1.083       .  S
C4253      C4254   1.416       .  A
C4254      C4258   1.517       .  S
C4255      C4260   1.418       .  A
C4255      C4264   1.401       .  A
C4256      F4272   1.382       .  S
C4256      F4273   1.382       .  S
C4256      F4274   1.385       .  S
C4258      F4269   1.385       .  S
C4258      F4270   1.382       .  S
C4258      F4271   1.382       .  S
C4260      C4261   1.409       .  A
C4260      C4265   1.519       .  S
C4261      C4262   1.402       .  A
C4261      H4266   1.083       .  S
C4262      C4263   1.419       .  A
C4263      C4264   1.409       .  A
C4263      C4267   1.517       .  S
C4264      H4268   1.083       .  S
C4265      F4278   1.384       .  S
C4265      F4279   1.382       .  S
C4265      F4280   1.383       .  S
C4267      F4275   1.385       .  S
C4267      F4276   1.383       .  S
C4267      F4277   1.380       .  S
C4281      C4282   1.403       .  A
C4281      C4286   1.405       .  A
C4281      H4291   1.084       .  S
C4282      C4283   1.415       .  A
C4282      C4287   1.479       .  S
C4283      C4284   1.400       .  A
C4283      C4288   1.520       .  S
C4284      C4285   1.402       .  A
C4284      H4289   1.084       .  S
C4285      C4286   1.418       .  A
C4286      C4290   1.520       .  S
C4287      C4292   1.414       .  A
C4287      C4296   1.400       .  A
C4288      F4304   1.382       .  S
C4288      F4305   1.382       .  S
C4288      F4306   1.385       .  S
C4290      F4301   1.383       .  S
C4290      F4302   1.383       .  S
C4290      F4303   1.382       .  S
C4292      C4293   1.406       .  A
C4292      C4297   1.518       .  S
C4293      C4294   1.403       .  A
C4293      H4298   1.083       .  S
C4294      C4295   1.418       .  A
C4295      C4296   1.405       .  A
C4295      C4299   1.518       .  S
C4296      H4300   1.083       .  S
C4297      F4310   1.384       .  S
C4297      F4311   1.383       .  S
C4297      F4312   1.382       .  S
C4299      F4307   1.382       .  S
C4299      F4308   1.383       .  S
C4299      F4309   1.385       .  S
C4313      C4314   1.400       .  A
C4313      C4318   1.406       .  A
C4313      H4323   1.083       .  S
C4314      C4315   1.415       .  A
C4314      C4319   1.486       .  S
C4315      C4316   1.410       .  A
C4315      C4320   1.518       .  S
C4316      C4317   1.406       .  A
C4316      H4321   1.083       .  S
C4317      C4318   1.421       .  A
C4318      C4322   1.521       .  S
C4319      C4324   1.418       .  A
C4319      C4328   1.403       .  A
C4320      F4336   1.382       .  S
C4320      F4337   1.382       .  S
C4320      F4338   1.384       .  S
C4322      F4333   1.382       .  S
C4322      F4334   1.385       .  S
C4322      F4335   1.381       .  S
C4324      C4325   1.406       .  A
C4324      C4329   1.521       .  S
C4325      C4326   1.402       .  A
C4325      H4330   1.083       .  S
C4326      C4327   1.416       .  A
C4327      C4328   1.409       .  A
C4327      C4331   1.519       .  S
C4328      H4332   1.083       .  S
C4329      F4342   1.385       .  S
C4329      F4343   1.382       .  S
C4329      F4344   1.382       .  S
C4331      F4339   1.384       .  S
C4331      F4340   1.384       .  S
C4331      F4341   1.382       .  S
C4345      C4346   1.401       .  A
C4345      C4350   1.408       .  A
C4345      H4355   1.083       .  S
C4346      C4347   1.417       .  A
C4346      C4351   1.483       .  S
C4347      C4348   1.408       .  A
C4347      C4352   1.520       .  S
C4348      C4349   1.403       .  A
C4348      H4353   1.083       .  S
C4349      C4350   1.417       .  A
C4350      C4354   1.517       .  S
C4351      C4356   1.416       .  A
C4351      C4360   1.402       .  A
C4352      F4368   1.383       .  S
C4352      F4369   1.382       .  S
C4352      F4370   1.384       .  S
C4354      F4365   1.382       .  S
C4354      F4366   1.384       .  S
C4354      F4367   1.383       .  S
C4356      C4357   1.407       .  A
C4356      C4361   1.518       .  S
C4357      C4358   1.402       .  A
C4357      H4362   1.083       .  S
C4358      C4359   1.413       .  A
C4359      C4360   1.405       .  A
C4359      C4363   1.515       .  S
C4360      H4364   1.083       .  S
C4361      F4374   1.385       .  S
C4361      F4375   1.382       .  S
C4361      F4376   1.382       .  S
C4363      F4371   1.383       .  S
C4363      F4372   1.380       .  S
C4363      F4373   1.384       .  S
C4377      C4378   1.402       .  A
C4377      C4382   1.403       .  A
C4377      H4387   1.083       .  S
C4378      C4379   1.417       .  A
C4378      C4383   1.482       .  S
C4379      C4380   1.405       .  A
C4379      C4384   1.519       .  S
C4380      C4381   1.402       .  A
C4380      H4385   1.083       .  S
C4381      C4382   1.416       .  A
C4382      C4386   1.521       .  S
C4383      C4388   1.417       .  A
C4383      C4392   1.404       .  A
C4384      F4400   1.381       .  S
C4384      F4401   1.383       .  S
C4384      F4402   1.385       .  S
C4386      F4397   1.384       .  S
C4386      F4398   1.380       .  S
C4386      F4399   1.383       .  S
C4388      C4389   1.402       .  A
C4388      C4393   1.521       .  S
C4389      C4390   1.402       .  A
C4389      H4394   1.084       .  S
C4390      C4391   1.414       .  A
C4391      C4392   1.407       .  A
C4391      C4395   1.518       .  S
C4392      H4396   1.083       .  S
C4393      F4406   1.385       .  S
C4393      F4407   1.381       .  S
C4393      F4408   1.383       .  S
C4395      F4403   1.384       .  S
C4395      F4404   1.383       .  S
C4395      F4405   1.383       .  S
C4409      C4410   1.399       .  A
C4409      C4414   1.402       .  A
C4409      H4419   1.083       .  S
C4410      C4411   1.415       .  A
C4410      C4415   1.477       .  S
C4411      C4412   1.406       .  A
C4411      C4416   1.519       .  S
C4412      C4413   1.402       .  A
C4412      H4417   1.083       .  S
C4413      C4414   1.418       .  A
C4414      C4418   1.520       .  S
C4415      C4420   1.417       .  A
C4415      C4424   1.403       .  A
C4416      F4432   1.382       .  S
C4416      F4433   1.383       .  S
C4416      F4434   1.385       .  S
C4418      F4429   1.382       .  S
C4418      F4430   1.385       .  S
C4418      F4431   1.383       .  S
C4420      C4421   1.402       .  A
C4420      C4425   1.520       .  S
C4421      C4422   1.400       .  A
C4421      H4426   1.083       .  S
C4422      C4423   1.412       .  A
C4423      C4424   1.404       .  A
C4423      C4427   1.517       .  S
C4424      H4428   1.083       .  S
C4425      F4438   1.385       .  S
C4425      F4439   1.382       .  S
C4425      F4440   1.382       .  S
C4427      F4435   1.382       .  S
C4427      F4436   1.383       .  S
C4427      F4437   1.384       .  S
C4441      C4442   1.401       .  A
C4441      C4446   1.402       .  A
C4441      H4451   1.083       .  S
C4442      C4443   1.415       .  A
C4442      C4447   1.473       .  S
C4443      C4444   1.403       .  A
C4443      C4448   1.519       .  S
C4444      C4445   1.399       .  A
C4444      H4449   1.084       .  S
C4445      C4446   1.412       .  A
C4446      C4450   1.517       .  S
C4447      C4452   1.413       .  A
C4447      C4456   1.398       .  A
C4448      F4464   1.383       .  S
C4448      F4465   1.382       .  S
C4448      F4466   1.385       .  S
C4450      F4461   1.385       .  S
C4450      F4462   1.383       .  S
C4450      F4463   1.383       .  S
C4452      C4453   1.405       .  A
C4452      C4457   1.519       .  S
C4453      C4454   1.403       .  A
C4453      H4458   1.083       .  S
C4454      C4455   1.419       .  A
C4455      C4456   1.399       .  A
C4455      C4459   1.520       .  S
C4456      H4460   1.085       .  S
C4457      F4470   1.384       .  S
C4457      F4471   1.382       .  S
C4457      F4472   1.382       .  S
C4459      F4467   1.383       .  S
C4459      F4468   1.380       .  S
C4459      F4469   1.384       .  S
C4473      C4474   1.400       .  A
C4473      C4478   1.402       .  A
C4473      H4483   1.083       .  S
C4474      C4475   1.416       .  A
C4474      C4479   1.472       .  S
C4475      C4476   1.403       .  A
C4475      C4480   1.521       .  S
C4476      C4477   1.402       .  A
C4476      H4481   1.083       .  S
C4477      C4478   1.413       .  A
C4478      C4482   1.517       .  S
C4479      C4484   1.412       .  A
C4479      C4488   1.402       .  A
C4480      F4496   1.382       .  S
C4480      F4497   1.381       .  S
C4480      F4498   1.385       .  S
C4482      F4493   1.382       .  S
C4482      F4494   1.384       .  S
C4482      F4495   1.383       .  S
C4484      C4485   1.401       .  A
C4484      C4489   1.520       .  S
C4485      C4486   1.402       .  A
C4485      H4490   1.084       .  S
C4486      C4487   1.415       .  A
C4487      C4488   1.405       .  A
C4487      C4491   1.518       .  S
C4488      H4492   1.083       .  S
C4489      F4502   1.384       .  S
C4489      F4503   1.382       .  S
C4489      F4504   1.381       .  S
C4491      F4499   1.383       .  S
C4491      F4500   1.383       .  S
C4491      F4501   1.385       .  S
C4505      C4506   1.398       .  A
C4505      C4510   1.399       .  A
C4505      H4515   1.085       .  S
C4506      C4507   1.415       .  A
C4506      C4511   1.476       .  S
C4507      C4508   1.405       .  A
C4507      C4512   1.519       .  S
C4508      C4509   1.402       .  A
C4508      H4513   1.083       .  S
C4509      C4510   1.419       .  A
C4510      C4514   1.520       .  S
C4511      C4516   1.414       .  A
C4511      C4520   1.402       .  A
C4512      F4528   1.382       .  S
C4512      F4529   1.382       .  S
C4512      F4530   1.385       .  S
C4514      F4525   1.384       .  S
C4514      F4526   1.383       .  S
C4514      F4527   1.380       .  S
C4516      C4517   1.398       .  A
C4516      C4521   1.520       .  S
C4517      C4518   1.401       .  A
C4517      H4522   1.081       .  S
C4518      C4519   1.417       .  A
C4519      C4520   1.407       .  A
C4519      C4523   1.518       .  S
C4520      H4524   1.083       .  S
C4521      F4534   1.385       .  S
C4521      F4535   1.382       .  S
C4521      F4536   1.382       .  S
C4523      F4531   1.385       .  S
C4523      F4532   1.383       .  S
C4523      F4533   1.382       .  S
C4537      C4538   1.401       .  A
C4537      C4542   1.408       .  A
C4537      H4547   1.083       .  S
C4538      C4539   1.416       .  A
C4538      C4543   1.483       .  S
C4539      C4540   1.406       .  A
C4539      C4544   1.520       .  S
C4540      C4541   1.403       .  A
C4540      H4545   1.083       .  S
C4541      C4542   1.417       .  A
C4542      C4546   1.517       .  S
C4543      C4548   1.415       .  A
C4543      C4552   1.402       .  A
C4544      F4560   1.382       .  S
C4544      F4561   1.382       .  S
C4544      F4562   1.385       .  S
C4546      F4557   1.382       .  S
C4546      F4558   1.385       .  S
C4546      F4559   1.384       .  S
C4548      C4549   1.407       .  A
C4548      C4553   1.518       .  S
C4549      C4550   1.403       .  A
C4549      H4554   1.083       .  S
C4550      C4551   1.416       .  A
C4551      C4552   1.406       .  A
C4551      C4555   1.519       .  S
C4552      H4556   1.083       .  S
C4553      F4566   1.384       .  S
C4553      F4567   1.382       .  S
C4553      F4568   1.383       .  S
C4555      F4563   1.382       .  S
C4555      F4564   1.383       .  S
C4555      F4565   1.384       .  S
C4569      C4570   1.402       .  A
C4569      C4574   1.404       .  A
C4569      H4579   1.083       .  S
C4570      C4571   1.416       .  A
C4570      C4575   1.480       .  S
C4571      C4572   1.405       .  A
C4571      C4576   1.519       .  S
C4572      C4573   1.401       .  A
C4572      H4577   1.083       .  S
C4573      C4574   1.413       .  A
C4574      C4578   1.517       .  S
C4575      C4580   1.416       .  A
C4575      C4584   1.402       .  A
C4576      F4592   1.382       .  S
C4576      F4593   1.382       .  S
C4576      F4594   1.385       .  S
C4578      F4589   1.383       .  S
C4578      F4590   1.385       .  S
C4578      F4591   1.382       .  S
C4580      C4581   1.404       .  A
C4580      C4585   1.521       .  S
C4581      C4582   1.402       .  A
C4581      H4586   1.083       .  S
C4582      C4583   1.417       .  A
C4583      C4584   1.405       .  A
C4583      C4587   1.517       .  S
C4584      H4588   1.084       .  S
C4585      F4598   1.384       .  S
C4585      F4599   1.382       .  S
C4585      F4600   1.382       .  S
C4587      F4595   1.384       .  S
C4587      F4596   1.382       .  S
C4587      F4597   1.383       .  S
C4601      C4602   1.402       .  A
C4601      C4606   1.405       .  A
C4601      H4611   1.083       .  S
C4602      C4603   1.416       .  A
C4602      C4607   1.476       .  S
C4603      C4604   1.402       .  A
C4603      C4608   1.521       .  S
C4604      C4605   1.400       .  A
C4604      H4609   1.083       .  S
C4605      C4606   1.414       .  A
C4606      C4610   1.518       .  S
C4607      C4612   1.415       .  A
C4607      C4616   1.402       .  A
C4608      F4624   1.382       .  S
C4608      F4625   1.381       .  S
C4608      F4626   1.385       .  S
C4610      F4621   1.382       .  S
C4610      F4622   1.385       .  S
C4610      F4623   1.383       .  S
C4612      C4613   1.405       .  A
C4612      C4617   1.519       .  S
C4613      C4614   1.401       .  A
C4613      H4618   1.083       .  S
C4614      C4615   1.411       .  A
C4615      C4616   1.402       .  A
C4615      C4619   1.516       .  S
C4616      H4620   1.083       .  S
C4617      F4630   1.385       .  S
C4617      F4631   1.382       .  S
C4617      F4632   1.382       .  S
C4619      F4627   1.382       .  S
C4619      F4628   1.383       .  S
C4619      F4629   1.385       .  S
C4633      C4634   1.402       .  A
C4633      C4638   1.406       .  A
C4633      H4643   1.083       .  S
C4634      C4635   1.417       .  A
C4634      C4639   1.481       .  S
C4635      C4636   1.406       .  A
C4635      C4640   1.520       .  S
C4636      C4637   1.401       .  A
C4636      H4641   1.083       .  S
C4637      C4638   1.414       .  A
C4638      C4642   1.517       .  S
C4639      C4644   1.416       .  A
C4639      C4648   1.401       .  A
C4640      F4656   1.382       .  S
C4640      F4657   1.381       .  S
C4640      F4658   1.385       .  S
C4642      F4653   1.385       .  S
C4642      F4654   1.383       .  S
C4642      F4655   1.381       .  S
C4644      C4645   1.409       .  A
C4644      C4649   1.520       .  S
C4645      C4646   1.404       .  A
C4645      H4650   1.083       .  S
C4646      C4647   1.416       .  A
C4647      C4648   1.405       .  A
C4647      C4651   1.519       .  S
C4648      H4652   1.083       .  S
C4649      F4662   1.384       .  S
C4649      F4663   1.383       .  S
C4649      F4664   1.381       .  S
C4651      F4659   1.383       .  S
C4651      F4660   1.382       .  S
C4651      F4661   1.384       .  S
C4665      C4666   1.400       .  A
C4665      C4670   1.403       .  A
C4665      H4675   1.083       .  S
C4666      C4667   1.416       .  A
C4666      C4671   1.481       .  S
C4667      C4668   1.408       .  A
C4667      C4672   1.519       .  S
C4668      C4669   1.403       .  A
C4668      H4673   1.083       .  S
C4669      C4670   1.416       .  A
C4670      C4674   1.520       .  S
C4671      C4676   1.417       .  A
C4671      C4680   1.402       .  A
C4672      F4688   1.382       .  S
C4672      F4689   1.382       .  S
C4672      F4690   1.385       .  S
C4674      F4685   1.382       .  S
C4674      F4686   1.385       .  S
C4674      F4687   1.382       .  S
C4676      C4677   1.407       .  A
C4676      C4681   1.520       .  S
C4677      C4678   1.401       .  A
C4677      H4682   1.083       .  S
C4678      C4679   1.413       .  A
C4679      C4680   1.405       .  A
C4679      C4683   1.516       .  S
C4680      H4684   1.083       .  S
C4681      F4694   1.384       .  S
C4681      F4695   1.382       .  S
C4681      F4696   1.382       .  S
C4683      F4691   1.381       .  S
C4683      F4692   1.383       .  S
C4683      F4693   1.385       .  S
C4697      C4698   1.403       .  A
C4697      C4702   1.405       .  A
C4697      H4707   1.083       .  S
C4698      C4699   1.416       .  A
C4698      C4703   1.477       .  S
C4699      C4700   1.400       .  A
C4699      C4704   1.520       .  S
C4700      C4701   1.401       .  A
C4700      H4705   1.084       .  S
C4701      C4702   1.413       .  A
C4702      C4706   1.517       .  S
C4703      C4708   1.414       .  A
C4703      C4712   1.400       .  A
C4704      F4720   1.382       .  S
C4704      F4721   1.382       .  S
C4704      F4722   1.385       .  S
C4706      F4717   1.385       .  S
C4706      F4718   1.382       .  S
C4706      F4719   1.383       .  S
C4708      C4709   1.405       .  A
C4708      C4713   1.519       .  S
C4709      C4710   1.404       .  A
C4709      H4714   1.083       .  S
C4710      C4711   1.416       .  A
C4711      C4712   1.403       .  A
C4711      C4715   1.518       .  S
C4712      H4716   1.083       .  S
C4713      F4726   1.384       .  S
C4713      F4727   1.382       .  S
C4713      F4728   1.383       .  S
C4715      F4723   1.385       .  S
C4715      F4724   1.383       .  S
C4715      F4725   1.380       .  S
C4729      C4730   1.401       .  A
C4729      C4734   1.401       .  A
C4729      H4739   1.083       .  S
C4730      C4731   1.415       .  A
C4730      C4735   1.473       .  S
C4731      C4732   1.403       .  A
C4731      C4736   1.520       .  S
C4732      C4733   1.403       .  A
C4732      H4737   1.083       .  S
C4733      C4734   1.412       .  A
C4734      C4738   1.517       .  S
C4735      C4740   1.416       .  A
C4735      C4744   1.399       .  A
C4736      F4752   1.382       .  S
C4736      F4753   1.382       .  S
C4736      F4754   1.385       .  S
C4738      F4749   1.385       .  S
C4738      F4750   1.382       .  S
C4738      F4751   1.383       .  S
C4740      C4741   1.403       .  A
C4740      C4745   1.521       .  S
C4741      C4742   1.400       .  A
C4741      H4746   1.083       .  S
C4742      C4743   1.418       .  A
C4743      C4744   1.403       .  A
C4743      C4747   1.520       .  S
C4744      H4748   1.083       .  S
C4745      F4758   1.384       .  S
C4745      F4759   1.382       .  S
C4745      F4760   1.382       .  S
C4747      F4755   1.383       .  S
C4747      F4756   1.382       .  S
C4747      F4757   1.385       .  S
C4761      C4762   1.402       .  A
C4761      C4766   1.408       .  A
C4761      H4771   1.083       .  S
C4762      C4763   1.417       .  A
C4762      C4767   1.488       .  S
C4763      C4764   1.409       .  A
C4763      C4768   1.519       .  S
C4764      C4765   1.404       .  A
C4764      H4769   1.083       .  S
C4765      C4766   1.418       .  A
C4766      C4770   1.520       .  S
C4767      C4772   1.417       .  A
C4767      C4776   1.402       .  A
C4768      F4784   1.383       .  S
C4768      F4785   1.382       .  S
C4768      F4786   1.385       .  S
C4770      F4781   1.383       .  S
C4770      F4782   1.384       .  S
C4770      F4783   1.381       .  S
C4772      C4773   1.409       .  A
C4772      C4777   1.519       .  S
C4773      C4774   1.403       .  A
C4773      H4778   1.083       .  S
C4774      C4775   1.417       .  A
C4775      C4776   1.409       .  A
C4775      C4779   1.519       .  S
C4776      H4780   1.083       .  S
C4777      F4790   1.384       .  S
C4777      F4791   1.383       .  S
C4777      F4792   1.382       .  S
C4779      F4787   1.382       .  S
C4779      F4788   1.383       .  S
C4779      F4789   1.384       .  S
C4793      C4794   1.401       .  A
C4793      C4798   1.404       .  A
C4793      H4803   1.083       .  S
C4794      C4795   1.414       .  A
C4794      C4799   1.475       .  S
C4795      C4796   1.405       .  A
C4795      C4800   1.521       .  S
C4796      C4797   1.402       .  A
C4796      H4801   1.083       .  S
C4797      C4798   1.414       .  A
C4798      C4802   1.518       .  S
C4799      C4804   1.414       .  A
C4799      C4808   1.401       .  A
C4800      F4816   1.382       .  S
C4800      F4817   1.382       .  S
C4800      F4818   1.384       .  S
C4802      F4813   1.383       .  S
C4802      F4814   1.384       .  S
C4802      F4815   1.383       .  S
C4804      C4805   1.401       .  A
C4804      C4809   1.521       .  S
C4805      C4806   1.402       .  A
C4805      H4810   1.083       .  S
C4806      C4807   1.415       .  A
C4807      C4808   1.405       .  A
C4807      C4811   1.517       .  S
C4808      H4812   1.083       .  S
C4809      F4822   1.385       .  S
C4809      F4823   1.382       .  S
C4809      F4824   1.382       .  S
C4811      F4819   1.382       .  S
C4811      F4820   1.382       .  S
C4811      F4821   1.385       .  S
C4825      C4826   1.401       .  A
C4825      C4830   1.404       .  A
C4825      H4835   1.085       .  S
C4826      C4827   1.414       .  A
C4826      C4831   1.478       .  S
C4827      C4828   1.403       .  A
C4827      C4832   1.520       .  S
C4828      C4829   1.404       .  A
C4828      H4833   1.083       .  S
C4829      C4830   1.419       .  A
C4830      C4834   1.519       .  S
C4831      C4836   1.414       .  A
C4831      C4840   1.400       .  A
C4832      F4848   1.382       .  S
C4832      F4849   1.382       .  S
C4832      F4850   1.385       .  S
C4834      F4845   1.383       .  S
C4834      F4846   1.383       .  S
C4834      F4847   1.381       .  S
C4836      C4837   1.406       .  A
C4836      C4841   1.520       .  S
C4837      C4838   1.406       .  A
C4837      H4842   1.083       .  S
C4838      C4839   1.416       .  A
C4839      C4840   1.403       .  A
C4839      C4843   1.517       .  S
C4840      H4844   1.083       .  S
C4841      F4854   1.384       .  S
C4841      F4855   1.382       .  S
C4841      F4856   1.382       .  S
C4843      F4851   1.384       .  S
C4843      F4852   1.381       .  S
C4843      F4853   1.384       .  S
C4857      C4858   1.403       .  A
C4857      C4862   1.408       .  A
C4857      H4867   1.083       .  S
C4858      C4859   1.416       .  A
C4858      C4863   1.485       .  S
C4859      C4860   1.407       .  A
C4859      C4864   1.519       .  S
C4860      C4861   1.402       .  A
C4860      H4865   1.083       .  S
C4861      C4862   1.417       .  A
C4862      C4866   1.519       .  S
C4863      C4868   1.417       .  A
C4863      C4872   1.403       .  A
C4864      F4880   1.383       .  S
C4864      F4881   1.383       .  S
C4864      F4882   1.384       .  S
C4866      F4877   1.384       .  S
C4866      F4878   1.383       .  S
C4866      F4879   1.382       .  S
C4868      C4869   1.405       .  A
C4868      C4873   1.520       .  S
C4869      C4870   1.402       .  A
C4869      H4874   1.083       .  S
C4870      C4871   1.417       .  A
C4871      C4872   1.409       .  A
C4871      C4875   1.518       .  S
C4872      H4876   1.083       .  S
C4873      F4886   1.385       .  S
C4873      F4887   1.382       .  S
C4873      F4888   1.383       .  S
C4875      F4883   1.384       .  S
C4875      F4884   1.383       .  S
C4875      F4885   1.383       .  S
C4889      C4890   1.403       .  A
C4889      C4894   1.408       .  A
C4889      H4899   1.083       .  S
C4890      C4891   1.416       .  A
C4890      C4895   1.486       .  S
C4891      C4892   1.408       .  A
C4891      C4896   1.520       .  S
C4892      C4893   1.404       .  A
C4892      H4897   1.083       .  S
C4893      C4894   1.416       .  A
C4894      C4898   1.519       .  S
C4895      C4900   1.416       .  A
C4895      C4904   1.402       .  A
C4896      F4912   1.383       .  S
C4896      F4913   1.382       .  S
C4896      F4914   1.384       .  S
C4898      F4909   1.381       .  S
C4898      F4910   1.384       .  S
C4898      F4911   1.383       .  S
C4900      C4901   1.408       .  A
C4900      C4905   1.520       .  S
C4901      C4902   1.404       .  A
C4901      H4906   1.083       .  S
C4902      C4903   1.417       .  A
C4903      C4904   1.408       .  A
C4903      C4907   1.517       .  S
C4904      H4908   1.083       .  S
C4905      F4918   1.385       .  S
C4905      F4919   1.382       .  S
C4905      F4920   1.382       .  S
C4907      F4915   1.384       .  S
C4907      F4916   1.381       .  S
C4907      F4917   1.384       .  S
