geometry optimzed in LAMMPS
_audit_creation_date              2020-11-30 
_audit_creation_method            'lammps2cif' 
_symmetry_space_group_name_H-M    'P1' 
_symmetry_Int_Tables_number       1 
_symmetry_cell_setting            triclinic 
loop_ 
_symmetry_equiv_pos_as_xyz 
  x,y,z 
_cell_length_a                    32.79927452 
_cell_length_b                    32.71309949122983 
_cell_length_c                    32.76737180223848 
_cell_angle_alpha                 90.06560835387388 
_cell_angle_beta                  90.205288571364 
_cell_angle_gamma                 89.94126049596736 
loop_ 
_atom_site_label 
_atom_site_type_symbol 
_atom_site_fract_x 
_atom_site_fract_y 
_atom_site_fract_z 
_atom_site_charge 
N1          N  0.00865087  0.26082036  0.26365483    -0.02300
C2          C  0.01008849  0.21948153  0.27091864     0.00200
C3          C  0.01739593  0.19762310  0.23573146    -0.22600
C4          C  0.01825810  0.22486491  0.20494745    -0.22800
C5          C  0.01368734  0.26325570  0.22202408     0.00100
H6          H  0.01933277  0.16471537  0.23259005     0.13900
H7          H  0.02095700  0.21727270  0.17290540     0.14000
O8          O  0.00563588  0.42762134  0.37802072    -0.85400
O9          O  0.99990080  0.43294889  0.61245256    -0.85500
O10         O  0.07045237  0.38145430  0.49690176    -0.87200
O11         O  0.94256518  0.37608811  0.49136498    -0.86000
O12         O  0.89031140  0.42222152  0.49362854    -0.85500
O13         O  0.11958985  0.43156975  0.49984466    -0.86900
O14         O  0.00061507  0.38238452  0.56367425    -0.85400
O15         O  0.00548630  0.37839742  0.42759707    -0.85000
Zr16       Zr  0.00532521  0.41366719  0.49522266     2.84300
O17         O  0.96231671  0.45359249  0.53582296    -1.07000
O18         O  0.04724007  0.45559142  0.45552539    -1.07700
C19         C  0.00531542  0.38978183  0.38951306     1.07700
C20         C  0.99918532  0.39507287  0.60119295     1.07700
C21         C  0.10752723  0.39368075  0.49862549     1.10700
C22         C  0.90450025  0.38524978  0.49210168     1.08500
H23         H  0.06112521  0.44050421  0.55546306     0.34000
O24         O  0.04436146  0.45687562  0.53752264    -1.27900
H25         H  0.94810905  0.43445191  0.43547414     0.33700
O26         O  0.96381492  0.45244032  0.45276946    -1.29600
O27         O  0.00644034  0.56812673  0.60618888    -0.85400
O28         O  0.00337504  0.56009305  0.37593252    -0.86900
O29         O  0.11576470  0.50531238  0.56637669    -0.85400
O30         O  0.88728905  0.49055569  0.56157542    -0.85500
O31         O  0.89059349  0.48798167  0.42351421    -0.85200
O32         O  0.12123961  0.49953708  0.43273000    -0.85000
O33         O  0.06089544  0.61608785  0.49343792    -0.85400
O34         O  0.92999487  0.60754974  0.49294249    -0.84800
O35         O  0.11354737  0.56990143  0.49650772    -0.85900
O36         O  0.88256003  0.55575648  0.49140509    -0.85100
O37         O  0.06480904  0.49657961  0.61254141    -0.85500
O38         O  0.07246103  0.49372631  0.38239042    -0.85200
O39         O  0.94202033  0.49144638  0.37596720    -0.84800
O40         O  0.93642382  0.49851323  0.61099522    -0.85200
O41         O  0.00108576  0.61645979  0.55574978    -0.85500
O42         O  0.99662804  0.61058587  0.42386863    -0.86900
Zr43       Zr  0.00101853  0.49839413  0.57637409     2.83100
Zr44       Zr  0.00530330  0.49429970  0.41253864     2.83500
Zr45       Zr  0.08561966  0.49944796  0.49772823     2.84100
Zr46       Zr  0.91959331  0.49136347  0.49312479     2.83400
Zr47       Zr  0.99798971  0.57817099  0.49186606     2.84200
O48         O  0.95977898  0.53367618  0.45126065    -1.07400
O49         O  0.04074976  0.54031011  0.53526060    -1.06900
C50         C  0.00578535  0.60576167  0.59336874     1.07700
C51         C  0.99962216  0.59813208  0.38640751     1.10300
C52         C  0.10233877  0.50253715  0.60343473     1.07900
C53         C  0.89918389  0.49430643  0.59935000     1.08300
C54         C  0.90443440  0.48887759  0.38640810     1.07800
C55         C  0.10947648  0.49699957  0.39515359     1.07400
C56         C  0.09901854  0.60690326  0.49470255     1.07800
C57         C  0.89318847  0.59374713  0.49212120     1.07300
H58         H  0.06002382  0.55572220  0.43678431     0.34000
O59         O  0.04353387  0.53822312  0.45383714    -1.28500
H60         H  0.94038417  0.55326249  0.55059120     0.34000
O61         O  0.95796719  0.53648183  0.53393007    -1.29900
N62         N  0.02777314  0.72324129  0.72423125    -0.02300
C63         C  0.03702246  0.71303078  0.76371392     0.00200
C64         C  0.06602011  0.74007007  0.77892749    -0.22600
C65         C  0.07197997  0.76951933  0.75005080    -0.22800
C66         C  0.04778173  0.75893433  0.71735100     0.00100
H67         H  0.07862474  0.74058895  0.80949776     0.13900
H68         H  0.08936017  0.79738854  0.75376927     0.14000
N69         N  0.98697691  0.26531228  0.72071265    -0.02300
C70         C  0.98258104  0.22421722  0.71401990     0.00200
C71         C  0.96178755  0.20662712  0.74628374    -0.22600
C72         C  0.95498561  0.23664387  0.77437105    -0.22800
C73         C  0.97119575  0.27200157  0.75844310     0.00100
H74         H  0.95469275  0.17456813  0.75021609     0.13900
H75         H  0.94275000  0.23247469  0.80471611     0.14000
N76         N  0.99976212  0.72471850  0.25958026    -0.02300
C77         C  0.00246018  0.72006985  0.21831327     0.00200
C78         C  0.00338770  0.75717077  0.19840886    -0.22600
C79         C  0.00174215  0.78636618  0.22777300    -0.22800
C80         C  0.99889725  0.76615576  0.26461736     0.00100
H81         H  0.00490104  0.76227752  0.16581028     0.13900
H82         H  0.00177996  0.81909318  0.22289089     0.14000
O83         O  0.99932272  0.05996650  0.38145120    -0.85400
O84         O  0.99728582  0.05629336  0.61325798    -0.85500
O85         O  0.93199185  0.10717486  0.49698847    -0.87200
O86         O  0.06351932  0.10761612  0.49739811    -0.86000
O87         O  0.11401260  0.05932929  0.49406850    -0.85500
O88         O  0.88276143  0.05752331  0.49942400    -0.86900
O89         O  0.00111359  0.10368600  0.56215413    -0.85400
O90         O  0.99719256  0.10755322  0.43298430    -0.85000
Zr91       Zr  0.99765000  0.07159158  0.49669751     2.84300
O92         O  0.03859623  0.03108128  0.53859040    -1.07000
O93         O  0.95660196  0.03120178  0.45435216    -1.07700
C94         C  0.99861035  0.09724652  0.39520361     1.07700
C95         C  0.99939886  0.09363479  0.59991737     1.07700
C96         C  0.89444225  0.09552917  0.49895240     1.10700
C97         C  0.10147115  0.09687332  0.49557603     1.08500
H98         H  0.93912862  0.04673690  0.55475546     0.34000
O99         O  0.95636102  0.02998590  0.53766320    -1.27900
H100        H  0.05589934  0.04987617  0.43740080     0.33700
O101        O  0.03888922  0.03239639  0.45394848    -1.29600
O102        O  0.00454919  0.91944466  0.60886897    -0.85400
O103        O  0.99539104  0.92239437  0.38020215    -0.86900
O104        O  0.88083280  0.98352249  0.55813505    -0.85400
O105        O  0.11433634  0.99247078  0.56056765    -0.85500
O106        O  0.11400975  0.98900042  0.43109148    -0.85200
O107        O  0.88103582  0.99379283  0.42961143    -0.85000
O108        O  0.93427877  0.87238800  0.49525238    -0.85400
O109        O  0.06931867  0.87625424  0.49507816    -0.84800
O110        O  0.88361917  0.92084785  0.49434617    -0.85900
O111        O  0.11725536  0.92730015  0.49566412    -0.85100
O112        O  0.92826345  0.98363354  0.60994298    -0.85500
O113        O  0.92962436  0.99836197  0.37986160    -0.85200
O114        O  0.06562377  0.98980281  0.38051911    -0.84800
O115        O  0.06593669  0.99001737  0.61112681    -0.85200
O116        O  0.00158011  0.87124550  0.55845451    -0.85500
O117        O  0.00020167  0.87358353  0.43044640    -0.86900
Zr118      Zr  0.99761197  0.98858114  0.57944841     2.83100
Zr119      Zr  0.99767584  0.99102344  0.41200131     2.83500
Zr120      Zr  0.91602843  0.98905699  0.49474506     2.84100
Zr121      Zr  0.08009485  0.99205400  0.49577860     2.83400
Zr122      Zr  0.00026880  0.90800215  0.49492690     2.84200
O123        O  0.03994407  0.95036653  0.45357196    -1.07400
O124        O  0.95764104  0.94777010  0.53623789    -1.06900
C125        C  0.00529789  0.88186361  0.59603282     1.07700
C126        C  0.99745722  0.88484585  0.39303887     1.10300
C127        C  0.89102653  0.98287643  0.59594002     1.07900
C128        C  0.10327706  0.99127297  0.59810290     1.08300
C129        C  0.10305024  0.98847359  0.39344338     1.07800
C130        C  0.89198923  0.99872320  0.39219968     1.07400
C131        C  0.89628057  0.88323341  0.49487139     1.07800
C132        C  0.10676369  0.88927462  0.49517224     1.07300
H133        H  0.94048817  0.93140398  0.43630897     0.34000
O134        O  0.95762400  0.94843679  0.45324234    -1.28500
H135        H  0.05804680  0.93264635  0.55331765     0.34000
O136        O  0.04020332  0.94954280  0.53697060    -1.29900
N137        N  0.22802110  0.22247748  0.49934063    -0.02300
C138        C  0.22587905  0.26397699  0.50482988     0.00200
C139        C  0.26435263  0.28086365  0.50817169    -0.22600
C140        C  0.29136101  0.24966184  0.50601301    -0.22800
C141        C  0.26893030  0.21457306  0.49974699     0.00100
H142        H  0.27195038  0.31285497  0.51186888     0.13900
H143        H  0.32423920  0.25228401  0.50755643     0.14000
N144        N  0.77086863  0.22398669  0.50863421    -0.02300
C145        C  0.77952153  0.26471753  0.51294707     0.00200
C146        C  0.74501696  0.28663958  0.52286045    -0.22600
C147        C  0.71350473  0.26018598  0.52155002    -0.22800
C148        C  0.72942417  0.22160604  0.51452357     0.00100
H149        H  0.74247854  0.31945022  0.52651845     0.13900
H150        H  0.68175373  0.26866505  0.52459456     0.14000
N151        N  0.76828953  0.75920034  0.48864862    -0.02300
C152        C  0.72748737  0.76810995  0.48889369     0.00200
C153        C  0.70438435  0.73355964  0.48175702    -0.22600
C154        C  0.73084318  0.70186870  0.47789412    -0.22800
C155        C  0.76950604  0.71792329  0.48200885     0.00100
H156        H  0.67145247  0.73153589  0.48082341     0.13900
H157        H  0.72279154  0.67004581  0.47372202     0.14000
N158        N  0.23336415  0.76624158  0.47403172    -0.02300
C159        C  0.22337870  0.72662965  0.46621636     0.00200
C160        C  0.25493686  0.70617540  0.44734080    -0.22600
C161        C  0.28598188  0.73352988  0.44344344    -0.22800
C162        C  0.27230706  0.76992839  0.45977422     0.00100
H163        H  0.25583565  0.67412317  0.43915343     0.13900
H164        H  0.31618502  0.72709150  0.43186914     0.14000
N165        N  0.72685302  0.03005086  0.26395759    -0.02300
C166        C  0.76734027  0.03831985  0.27055818     0.00200
C167        C  0.78367733  0.05931592  0.23792194    -0.22600
C168        C  0.75340202  0.06345400  0.20965535    -0.22800
C169        C  0.71917180  0.04508181  0.22565925     0.00100
H170        H  0.81518015  0.06831046  0.23405114     0.13900
H171        H  0.75693185  0.07516681  0.17897830     0.14000
O172        O  0.42549999  0.10431333  0.49987384    -0.85400
O173        O  0.43909532  0.87476989  0.48719083    -0.85500
O174        O  0.38213596  0.99290232  0.43093172    -0.87200
O175        O  0.38254750  0.98945217  0.56210991    -0.86000
O176        O  0.43161756  0.99347297  0.61186071    -0.85500
O177        O  0.42957285  0.99919423  0.38024188    -0.86900
O178        O  0.38785860  0.92256251  0.49260693    -0.85400
O179        O  0.37975817  0.05118503  0.49615732    -0.85000
Zr180      Zr  0.41830833  0.98943874  0.49651483     2.84300
O181        O  0.46081651  0.94712349  0.53539124    -1.07000
O182        O  0.45667179  0.03509587  0.45759327    -1.07700
C183        C  0.38885513  0.08922338  0.49745702     1.07700
C184        C  0.40120498  0.88587312  0.48812260     1.07700
C185        C  0.39211703  0.99643664  0.39294828     1.10700
C186        C  0.39369860  0.99243459  0.59987299     1.08500
H187        H  0.44403238  0.93512034  0.43500385     0.34000
O188        O  0.46058457  0.95183650  0.45300750    -1.27900
H189        H  0.43962032  0.04763441  0.55724233     0.33700
O190        O  0.45696928  0.03181427  0.53957016    -1.29600
O191        O  0.57556407  0.88311126  0.49604090    -0.85400
O192        O  0.56206347  0.11305024  0.49848014    -0.86900
O193        O  0.50043199  0.93340492  0.37643032    -0.85400
O194        O  0.49820983  0.92175334  0.60727089    -0.85500
O195        O  0.50493271  0.04929514  0.61772129    -0.85200
O196        O  0.49685271  0.06488774  0.38407789    -0.85000
O197        O  0.61443468  0.00034566  0.42615559    -0.85400
O198        O  0.61582147  0.99685704  0.56128226    -0.84800
O199        O  0.56395880  0.00275203  0.37749891    -0.85900
O200        O  0.56753242  0.98898967  0.61117950    -0.85100
O201        O  0.50824464  0.88179657  0.42327693    -0.85500
O202        O  0.49384800  0.11297042  0.43430011    -0.85200
O203        O  0.50323955  0.10284366  0.57231843    -0.84800
O204        O  0.49906357  0.87330000  0.55678578    -0.85200
O205        O  0.62110203  0.93636253  0.49500184    -0.85500
O206        O  0.61250181  0.06450907  0.49640026    -0.86900
Zr207      Zr  0.50476760  0.91044649  0.49204207     2.83100
Zr208      Zr  0.49607391  0.07717301  0.50056423     2.83500
Zr209      Zr  0.49812721  0.99752737  0.41332598     2.84100
Zr210      Zr  0.49974500  0.98910531  0.57785753     2.83400
Zr211      Zr  0.58151557  0.99773166  0.49435847     2.84200
O212        O  0.53884911  0.03425024  0.53840963    -1.07400
O213        O  0.54245977  0.95586840  0.45153370    -1.06900
C214        C  0.61232359  0.89823363  0.49651477     1.07700
C215        C  0.60000257  0.10179261  0.49736676     1.10300
C216        C  0.50472729  0.89553530  0.38639519     1.07900
C217        C  0.49688477  0.88453748  0.59464122     1.08300
C218        C  0.50610825  0.08732011  0.60895087     1.07800
C219        C  0.49493516  0.10217700  0.39616647     1.07400
C220        C  0.60194521  0.00288552  0.38854385     1.07800
C221        C  0.60497697  0.99293939  0.59907842     1.07300
H222        H  0.55397718  0.05741693  0.43969242     0.34000
O223        O  0.53779053  0.03915054  0.45619718    -1.28500
H224        H  0.56110246  0.93582483  0.55150158     0.34000
O225        O  0.54341059  0.95246454  0.53484204    -1.29900
N226        N  0.26785431  0.99500545  0.72684014    -0.02300
C227        C  0.27345480  0.99810776  0.76816679     0.00200
C228        C  0.23693249  0.99506436  0.78879735    -0.22600
C229        C  0.20728819  0.99204781  0.76024569    -0.22800
C230        C  0.22645716  0.99138765  0.72284045     0.00100
H231        H  0.23235509  0.99592224  0.82149887     0.13900
H232        H  0.17486762  0.99017451  0.76606562     0.14000
N233        N  0.73023251  0.00527799  0.72544887    -0.02300
C234        C  0.77115735  0.01047244  0.72012895     0.00200
C235        C  0.78990490  0.02228492  0.75591156    -0.22600
C236        C  0.76003436  0.02427540  0.78474112    -0.22800
C237        C  0.72400104  0.01283395  0.76582590     0.00100
H238        H  0.82223779  0.02670455  0.76092209     0.13900
H239        H  0.76461885  0.02997001  0.81698395     0.14000
N240        N  0.26834809  0.98065278  0.26454812    -0.02300
C241        C  0.27557755  0.97616337  0.22350119     0.00200
C242        C  0.24033416  0.96534605  0.20306354    -0.22600
C243        C  0.20975613  0.96695189  0.23035246    -0.22800
C244        C  0.22696438  0.97475346  0.26815550     0.00100
H245        H  0.23665350  0.96009786  0.17062149     0.13900
H246        H  0.17781233  0.96293341  0.22300996     0.14000
O247        O  0.62120305  0.99648558  0.05753502    -0.85400
O248        O  0.38979428  0.99209011  0.06612942    -0.85500
O249        O  0.50327415  0.05554830  0.11309915    -0.87200
O250        O  0.50294719  0.92035841  0.10906813    -0.86000
O251        O  0.50154480  0.87205131  0.05829379    -0.85500
O252        O  0.50352021  0.10577911  0.06457995    -0.86900
O253        O  0.44095775  0.99192712  0.11355547    -0.85400
O254        O  0.57229594  0.99538949  0.10772328    -0.85000
Zr255      Zr  0.50465022  0.98940120  0.07737076     2.84300
O256        O  0.46082805  0.95112058  0.03594507    -1.07000
O257        O  0.54499790  0.03090073  0.03567829    -1.07700
C258        C  0.60941721  0.99879677  0.09514612     1.07700
C259        C  0.40306898  0.99240187  0.10343557     1.07700
C260        C  0.50321563  0.09363246  0.10229091     1.10700
C261        C  0.50206474  0.88269460  0.09626977     1.08500
H262        H  0.44632734  0.04954274  0.05613977     0.34000
O263        O  0.46220139  0.03225245  0.03838475    -1.27900
H264        H  0.56148563  0.93156609  0.05112454     0.33700
O265        O  0.54429192  0.94895137  0.03425091    -1.29600
O266        O  0.38445682  0.99877089  0.92958311    -0.85400
O267        O  0.61396497  0.98875899  0.92261880    -0.86900
O268        O  0.44155951  0.11196493  0.99929920    -0.85400
O269        O  0.43494434  0.87614668  0.99781858    -0.85500
O270        O  0.56493863  0.87491123  0.99217222    -0.85200
O271        O  0.56595204  0.10730808  0.99776143    -0.85000
O272        O  0.50181543  0.05734124  0.87920791    -0.85400
O273        O  0.49873850  0.92378209  0.87780810    -0.84800
O274        O  0.50098460  0.10641590  0.92937460    -0.85900
O275        O  0.49867878  0.87420910  0.92707069    -0.85100
O276        O  0.38950409  0.06528180  0.00124475    -0.85500
O277        O  0.61636635  0.05927125  0.99069814    -0.85200
O278        O  0.61606751  0.92309614  0.99468628    -0.84800
O279        O  0.38567651  0.92630738  0.99814961    -0.85200
O280        O  0.43424697  0.99645135  0.88048898    -0.85500
O281        O  0.56162497  0.98601005  0.87625721    -0.86900
Zr282      Zr  0.41821218  0.99416940  0.99705857     2.83100
Zr283      Zr  0.58491653  0.99074117  0.99209995     2.83500
Zr284      Zr  0.50261876  0.07274164  0.99653999     2.84100
Zr285      Zr  0.50026009  0.90928857  0.99364059     2.83400
Zr286      Zr  0.49924455  0.99085869  0.91319817     2.84200
O287        O  0.54188351  0.94941232  0.95221269    -1.07400
O288        O  0.45976719  0.03361744  0.95503823    -1.06900
C289        C  0.39695986  0.99874402  0.89197400     1.07700
C290        C  0.59955687  0.98698622  0.88565982     1.10300
C291        C  0.40376287  0.10258607  0.00111919     1.07900
C292        C  0.39770977  0.88844654  0.99818721     1.08300
C293        C  0.60240853  0.88603093  0.99435001     1.07800
C294        C  0.60322137  0.09658146  0.99401498     1.07400
C295        C  0.50169809  0.09486484  0.89156051     1.07800
C296        C  0.49842253  0.88580782  0.88927598     1.07300
H297        H  0.55876406  0.04938892  0.93522556     0.34000
O298        O  0.54232055  0.03233883  0.95275313    -1.28500
H299        H  0.43953367  0.93443573  0.93745100     0.34000
O300        O  0.45718983  0.95102630  0.95438838    -1.29900
N301        N  0.51501934  0.22243226  0.22620256    -0.02300
C302        C  0.52225740  0.21845572  0.26736884     0.00200
C303        C  0.55306697  0.24515927  0.27909856    -0.22600
C304        C  0.56137824  0.26946050  0.24658627    -0.22800
C305        C  0.53665221  0.25628501  0.21528703     0.00100
H306        H  0.56677839  0.24840272  0.30898861     0.13900
H307        H  0.58012599  0.29667345  0.24702322     0.14000
N308        N  0.51067505  0.76068547  0.22591174    -0.02300
C309        C  0.51711272  0.71941853  0.22300131     0.00200
C310        C  0.52270098  0.70203112  0.26096273    -0.22600
C311        C  0.52066868  0.73280547  0.28850870    -0.22800
C312        C  0.51228105  0.76811276  0.26693586     0.00100
H313        H  0.52754285  0.67003461  0.26787567     0.13900
H314        H  0.52348483  0.72964529  0.32128984     0.14000
N315        N  0.48287602  0.75938426  0.76237646    -0.02300
C316        C  0.47358153  0.71892122  0.76828124     0.00200
C317        C  0.46488037  0.69943095  0.73193134    -0.22600
C318        C  0.46793896  0.72783119  0.70226775    -0.22800
C319        C  0.48022762  0.76370479  0.72082512     0.00100
H320        H  0.45795598  0.66739759  0.72736563     0.13900
H321        H  0.46348662  0.72250446  0.66993215     0.14000
N322        N  0.50602049  0.22135116  0.76756841    -0.02300
C323        C  0.50963573  0.21498503  0.72663814     0.00200
C324        C  0.50983451  0.25140196  0.70546947    -0.22600
C325        C  0.50661240  0.28163318  0.73370321    -0.22800
C326        C  0.50340323  0.26283149  0.77127907     0.00100
H327        H  0.51225246  0.25543054  0.67278367     0.13900
H328        H  0.50579333  0.31412236  0.72750462     0.14000
O329        O  0.99661529  0.37484615  0.05800620    -0.85400
O330        O  0.99666768  0.60517002  0.06470786    -0.85500
O331        O  0.06482887  0.49160954  0.10942260    -0.87200
O332        O  0.92959173  0.48608405  0.10910398    -0.86000
O333        O  0.87892805  0.48778243  0.06136194    -0.85500
O334        O  0.11355960  0.49538277  0.05971303    -0.86900
O335        O  0.99357714  0.55346260  0.11223029    -0.85400
O336        O  0.99719512  0.42336923  0.10876432    -0.85000
Zr337      Zr  0.99682466  0.48959008  0.07603355     2.84300
O338        O  0.95495827  0.53205767  0.03655320    -1.07000
O339        O  0.03811985  0.44998363  0.03344555    -1.07700
C340        C  0.99706974  0.38610914  0.09599517     1.07700
C341        C  0.99525972  0.59120135  0.10158129     1.07700
C342        C  0.10257330  0.49448952  0.09778370     1.10700
C343        C  0.89140186  0.48567004  0.09877960     1.08500
H344        H  0.05390113  0.55001466  0.05332858     0.34000
O345        O  0.03676157  0.53334053  0.03601323    -1.27900
H346        H  0.93894041  0.43150149  0.05045456     0.33700
O347        O  0.95552909  0.44926468  0.03388538    -1.29600
O348        O  0.99591295  0.61174443  0.93033644    -0.85400
O349        O  0.99387357  0.37940073  0.92220445    -0.86900
O350        O  0.11155231  0.55828351  0.99467444    -0.85400
O351        O  0.87876897  0.55623407  0.00206721    -0.85500
O352        O  0.88091589  0.42577079  0.99171486    -0.85200
O353        O  0.11380007  0.42956435  0.99479628    -0.85000
O354        O  0.05492438  0.50070330  0.87501661    -0.85400
O355        O  0.92400581  0.49869378  0.87866269    -0.84800
O356        O  0.10594427  0.50116450  0.92335927    -0.85900
O357        O  0.87584824  0.49555042  0.92895997    -0.85100
O358        O  0.06270386  0.60821422  0.99348895    -0.85500
O359        O  0.06574558  0.37843840  0.99265753    -0.85200
O360        O  0.93056077  0.37596618  0.98951669    -0.84800
O361        O  0.92725400  0.60696310  0.00201838    -0.85200
O362        O  0.99276295  0.56194516  0.88222139    -0.85500
O363        O  0.99247550  0.43151323  0.87561050    -0.86900
Zr364      Zr  0.99483502  0.57573429  0.99627368     2.83100
Zr365      Zr  0.99697725  0.40940121  0.99123194     2.83500
Zr366      Zr  0.07740944  0.49355945  0.99296996     2.84100
Zr367      Zr  0.91285893  0.49177899  0.99495348     2.83400
Zr368      Zr  0.99158330  0.49520119  0.91243488     2.84200
O369        O  0.95305374  0.45115381  0.95239625    -1.07400
O370        O  0.03438626  0.53491822  0.95365306    -1.06900
C371        C  0.99526171  0.59960970  0.89268057     1.07700
C372        C  0.99234613  0.39340617  0.88516419     1.10300
C373        C  0.10035682  0.59585929  0.99352261     1.07900
C374        C  0.89008071  0.59375304  0.00386583     1.08300
C375        C  0.89317580  0.38848849  0.98978009     1.07800
C376        C  0.10298028  0.39181240  0.99459181     1.07400
C377        C  0.09257792  0.50324832  0.88600800     1.07800
C378        C  0.88643130  0.49796528  0.89088963     1.07300
H379        H  0.05311141  0.43710472  0.93228181     0.34000
O380        O  0.03609048  0.45303026  0.95041466    -1.28500
H381        H  0.93410051  0.55361900  0.93874615     0.34000
O382        O  0.95160659  0.53608391  0.95472898    -1.29900
N383        N  0.77086120  0.48197134  0.22770803    -0.02300
C384        C  0.77576119  0.49106777  0.26840090     0.00200
C385        C  0.74152993  0.50828944  0.28535505    -0.22600
C386        C  0.71351125  0.51067218  0.25513291    -0.22800
C387        C  0.73128958  0.49434759  0.22067906     0.00100
H388        H  0.73775447  0.51858605  0.31653086     0.13900
H389        H  0.68272686  0.52229432  0.25796245     0.14000
N390        N  0.22955485  0.50841026  0.22652405    -0.02300
C391        C  0.27123433  0.50695064  0.22235851     0.00200
C392        C  0.29136109  0.51488495  0.25844603    -0.22600
C393        C  0.26244653  0.52102268  0.28687482    -0.22800
C394        C  0.22529955  0.51707438  0.26739472     0.00100
H395        H  0.32400637  0.51571736  0.26342839     0.13900
H396        H  0.26779298  0.52600892  0.31913715     0.14000
N397        N  0.22213103  0.52617404  0.76999893    -0.02300
C398        C  0.26042407  0.53719595  0.78245255     0.00200
C399        C  0.27503900  0.56781034  0.75704947    -0.22600
C400        C  0.24710034  0.57314404  0.72641095    -0.22800
C401        C  0.21554368  0.54657393  0.73435604     0.00100
H402        H  0.30497247  0.58168732  0.75818027     0.13900
H403        H  0.25107940  0.59159103  0.69932217     0.14000
N404        N  0.76322885  0.49259893  0.76029673    -0.02300
C405        C  0.77052449  0.49050633  0.71907032     0.00200
C406        C  0.73506626  0.48228240  0.69769147    -0.22600
C407        C  0.70444629  0.48105809  0.72517319    -0.22800
C408        C  0.72186659  0.48661476  0.76315499     0.00100
H409        H  0.73170036  0.47889516  0.66497350     0.13900
H410        H  0.67246964  0.47653268  0.71821624     0.14000
N411        N  0.26875183  0.26319751  0.99378161    -0.02300
C412        C  0.22747316  0.26745856  0.98905746     0.00200
C413        C  0.20886421  0.22992071  0.98456559    -0.22600
C414        C  0.23891281  0.20123163  0.98612215    -0.22800
C415        C  0.27513013  0.22185540  0.99228678     0.00100
H416        H  0.17657057  0.22412516  0.98088898     0.13900
H417        H  0.23475922  0.16846050  0.98421442     0.14000
O418        O  0.50327293  0.42297316  0.11133237    -0.85400
O419        O  0.49492929  0.42423274  0.88124759    -0.85500
O420        O  0.43286410  0.37627179  0.99910272    -0.87200
O421        O  0.56738591  0.37816841  0.99752458    -0.86000
O422        O  0.61627217  0.42810394  0.99311571    -0.85500
O423        O  0.38309707  0.42578273  0.99881645    -0.86900
O424        O  0.49640623  0.37616542  0.93229806    -0.85400
O425        O  0.49847044  0.37561793  0.06034080    -0.85000
Zr426      Zr  0.49904339  0.41111848  0.99632483     2.84300
O427        O  0.53853245  0.45178422  0.95280511    -1.07000
O428        O  0.45785089  0.45152387  0.03835166    -1.07700
C429        C  0.50216867  0.38546503  0.09807177     1.07700
C430        C  0.49545924  0.38690426  0.89466671     1.07700
C431        C  0.39517731  0.38802249  0.99933388     1.10700
C432        C  0.60506655  0.39033593  0.99565374     1.08500
H433        H  0.43846623  0.43423066  0.93932193     0.34000
O434        O  0.45601580  0.45154472  0.95556612    -1.27900
H435        H  0.55907513  0.43501586  0.05242151     0.33700
O436        O  0.54143277  0.45211758  0.03607893    -1.29600
O437        O  0.49024439  0.56142672  0.88193503    -0.85400
O438        O  0.50678534  0.55855478  0.11194752    -0.86900
O439        O  0.38141159  0.49425218  0.93203470    -0.85400
O440        O  0.61095556  0.49532508  0.92477508    -0.85500
O441        O  0.61718568  0.49339118  0.05726363    -0.85200
O442        O  0.38291890  0.49786845  0.06263856    -0.85000
O443        O  0.43019899  0.60966955  0.99387025    -0.85400
O444        O  0.56465948  0.60985275  0.99648521    -0.84800
O445        O  0.38111300  0.56005461  0.99302049    -0.85900
O446        O  0.61428788  0.56064491  0.99600789    -0.85100
O447        O  0.42771855  0.49166941  0.88066631    -0.85500
O448        O  0.43279153  0.49409476  0.11218169    -0.85200
O449        O  0.56993891  0.49176011  0.10888310    -0.84800
O450        O  0.56002494  0.49388979  0.87632024    -0.85200
O451        O  0.49630354  0.61049170  0.93192650    -0.85500
O452        O  0.50345865  0.60735755  0.06157620    -0.86900
Zr453      Zr  0.49532861  0.49282210  0.91263307     2.83100
Zr454      Zr  0.50059137  0.49177330  0.07919794     2.83500
Zr455      Zr  0.41610508  0.49336059  0.99740924     2.84100
Zr456      Zr  0.58058207  0.49378141  0.99282313     2.83400
Zr457      Zr  0.49783477  0.57518861  0.99592034     2.84200
O458        O  0.53967990  0.53328319  0.03581459    -1.07400
O459        O  0.45580190  0.53430606  0.95519643    -1.06900
C460        C  0.49185012  0.59895791  0.89472844     1.07700
C461        C  0.50688023  0.59586560  0.09893222     1.10300
C462        C  0.39063745  0.49304455  0.89389803     1.07900
C463        C  0.59782217  0.49476570  0.88751984     1.08300
C464        C  0.60710511  0.49231617  0.09524231     1.07800
C465        C  0.39515354  0.49709602  0.09994736     1.07400
C466        C  0.39230153  0.59805187  0.99218597     1.07800
C467        C  0.60253782  0.59840432  0.99726074     1.07300
H468        H  0.44189358  0.55171081  0.05582353     0.34000
O469        O  0.45824667  0.53412711  0.03875472    -1.28500
H470        H  0.55420551  0.55226959  0.93534448     0.34000
O471        O  0.53793312  0.53481293  0.95259104    -1.29900
N472        N  0.72919805  0.72384751  0.01509890    -0.02300
C473        C  0.72386864  0.76474258  0.02166333     0.00200
C474        C  0.75998087  0.78393915  0.03169831    -0.22600
C475        C  0.78903620  0.75457621  0.03232643    -0.22800
C476        C  0.76995686  0.71861183  0.02153233     0.00100
H477        H  0.76470428  0.81624763  0.03709668     0.13900
H478        H  0.82126207  0.75913518  0.03793690     0.14000
N479        N  0.26546782  0.72620064  0.98371586    -0.02300
C480        C  0.27109173  0.76775097  0.98044580     0.00200
C481        C  0.23448519  0.78797345  0.97539962    -0.22600
C482        C  0.20513333  0.75928029  0.97365446    -0.22800
C483        C  0.22374395  0.72203951  0.98057625     0.00100
H484        H  0.22964692  0.82064302  0.97311730     0.13900
H485        H  0.17282126  0.76519697  0.97012041     0.14000
N486        N  0.72896008  0.26247915  0.98785622    -0.02300
C487        C  0.76963051  0.26694489  0.98052046     0.00200
C488        C  0.78883478  0.22970788  0.97607188    -0.22600
C489        C  0.75963884  0.20083311  0.97978313    -0.22800
C490        C  0.72360403  0.22115219  0.98790152     0.00100
H491        H  0.82099016  0.22424048  0.97105688     0.13900
H492        H  0.76431316  0.16810930  0.97802396     0.14000
C493        C  0.63829455  0.35850285  0.99510467    -0.04200
C494        C  0.64497107  0.33202819  0.02850760    -0.01300
C495        C  0.67348608  0.29938462  0.02577020     0.03700
C496        C  0.69820811  0.29472892  0.99068019    -0.04200
C497        C  0.69301468  0.32282145  0.95827424    -0.01300
C498        C  0.66424243  0.35492751  0.96101630     0.03700
C499        C  0.62708280  0.34202709  0.06755115     0.38300
C500        C  0.71415212  0.31652013  0.92006287     0.38300
C501        C  0.66299163  0.38559289  0.92935532     0.36700
C502        C  0.67791745  0.27140747  0.05968211     0.36700
N503        N  0.66360907  0.41074449  0.90468329    -0.38100
N504        N  0.68103654  0.24942689  0.08716454    -0.38100
N505        N  0.72924948  0.31172602  0.88856955    -0.37500
N506        N  0.61430685  0.35080067  0.09922664    -0.37500
C507        C  0.29704454  0.69408371  0.98597263    -0.04200
C508        C  0.29375624  0.66028988  0.01285974    -0.01300
C509        C  0.32135375  0.62680708  0.01020421     0.03700
C510        C  0.35904103  0.63075375  0.98921174    -0.04200
C511        C  0.36396092  0.66627963  0.96480088    -0.01300
C512        C  0.33149747  0.69478213  0.95987165     0.03700
C513        C  0.26350125  0.66026374  0.04487362     0.38300
C514        C  0.40185391  0.67376964  0.94358286     0.38300
C515        C  0.33226135  0.72208445  0.92517636     0.36700
C516        C  0.30918028  0.58788948  0.02730278     0.36700
N517        N  0.33318488  0.74273265  0.89656446    -0.38100
N518        N  0.29847258  0.55660622  0.03975932    -0.38100
N519        N  0.43208618  0.68141145  0.92723390    -0.37500
N520        N  0.23993148  0.65987150  0.07107092    -0.37500
C521        C  0.69763608  0.69247868  0.00943593    -0.04200
C522        C  0.70072508  0.66114349  0.97961910    -0.01300
C523        C  0.67239853  0.62831892  0.97895958     0.03700
C524        C  0.63511365  0.63106436  0.00072398    -0.04200
C525        C  0.63056611  0.66434130  0.02806204    -0.01300
C526        C  0.66347449  0.69131711  0.03558584     0.03700
C527        C  0.73122575  0.66279614  0.94794345     0.38300
C528        C  0.59290858  0.67058858  0.05011966     0.38300
C529        C  0.66467089  0.71316753  0.07385261     0.36700
C530        C  0.68359251  0.59092043  0.95804762     0.36700
N531        N  0.66596490  0.72846976  0.10562675    -0.38100
N532        N  0.69390468  0.56068022  0.94287314    -0.38100
N533        N  0.56286443  0.67728936  0.06722632    -0.37500
N534        N  0.75416181  0.66285827  0.92119425    -0.37500
C535        C  0.29952430  0.29539538  0.99630675    -0.04200
C536        C  0.30519366  0.32292756  0.96344147    -0.01300
C537        C  0.33620019  0.35296462  0.96480553     0.03700
C538        C  0.36291396  0.35561563  0.99847680    -0.04200
C539        C  0.35914903  0.32666848  0.03021492    -0.01300
C540        C  0.32681628  0.29780244  0.02989040     0.03700
C541        C  0.28242840  0.31824292  0.92590440     0.38300
C542        C  0.38947665  0.32546081  0.06247652     0.38300
C543        C  0.32146988  0.27128470  0.06475308     0.36700
C544        C  0.34323041  0.37861310  0.92944166     0.36700
N545        N  0.31794443  0.25088828  0.09334485    -0.38100
N546        N  0.34905042  0.39827122  0.90074994    -0.38100
N547        N  0.41419089  0.32363002  0.08769671    -0.37500
N548        N  0.26689454  0.31589774  0.89426176    -0.37500
C549        C  0.69520043  0.48671107  0.79990176    -0.04200
C550        C  0.66694028  0.45410982  0.80462393    -0.01300
C551        C  0.63399261  0.45768661  0.83174356     0.03700
C552        C  0.62911027  0.49341167  0.85510735    -0.04200
C553        C  0.65546678  0.52677665  0.84877735    -0.01300
C554        C  0.68934647  0.52302339  0.82250789     0.03700
C555        C  0.67086765  0.41691306  0.78064485     0.38300
C556        C  0.64444752  0.56647580  0.86481679     0.38300
C557        C  0.71636677  0.55759211  0.81707800     0.36700
C558        C  0.60468748  0.42462658  0.83506356     0.36700
N559        N  0.73757377  0.58561006  0.81362547    -0.38100
N560        N  0.58154484  0.39808790  0.83738374    -0.38100
N561        N  0.63525442  0.59858148  0.87635023    -0.37500
N562        N  0.67379064  0.38727038  0.76155490    -0.37500
C563        C  0.28955963  0.51264057  0.80892104    -0.04200
C564        C  0.32947731  0.50532170  0.79401379    -0.01300
C565        C  0.36247134  0.49846032  0.82094605     0.03700
C566        C  0.35565319  0.49463740  0.86357804    -0.04200
C567        C  0.31433489  0.49288272  0.87699491    -0.01300
C568        C  0.28172330  0.50128053  0.84981169     0.03700
C569        C  0.33662345  0.50292718  0.75036388     0.38300
C570        C  0.30422366  0.48211376  0.91887952     0.38300
C571        C  0.24106684  0.49342780  0.86442430     0.36700
C572        C  0.40322232  0.49646936  0.80384307     0.36700
N573        N  0.21054308  0.48406244  0.87928095    -0.38100
N574        N  0.43554121  0.49483106  0.78984328    -0.38100
N575        N  0.29565563  0.47356928  0.95203718    -0.37500
N576        N  0.34309250  0.50036357  0.71577790    -0.37500
C577        C  0.29615851  0.50118205  0.18549457    -0.04200
C578        C  0.30454834  0.53542464  0.16099057    -0.01300
C579        C  0.33901800  0.53519800  0.13538342     0.03700
C580        C  0.36245531  0.49920583  0.13073608    -0.04200
C581        C  0.35236931  0.46422045  0.15337093    -0.01300
C582        C  0.32196570  0.46646345  0.18330099     0.03700
C583        C  0.28017164  0.57223159  0.16548642     0.38300
C584        C  0.37225900  0.42558406  0.14512576     0.38300
C585        C  0.31932083  0.43423646  0.21368866     0.36700
C586        C  0.35213465  0.57289014  0.11659813     0.36700
N587        N  0.31756752  0.40884280  0.23818573    -0.38100
N588        N  0.36237966  0.60359211  0.10258144    -0.38100
N589        N  0.38718170  0.39435266  0.13806269    -0.37500
N590        N  0.26052607  0.60135102  0.16956319    -0.37500
C591        C  0.70518560  0.48881730  0.18408792    -0.04200
C592        C  0.70673513  0.51686509  0.15167104    -0.01300
C593        C  0.67539231  0.51744317  0.12194904     0.03700
C594        C  0.64133973  0.49077440  0.12540857    -0.04200
C595        C  0.64054218  0.46209730  0.15765441    -0.01300
C596        C  0.67225073  0.46115737  0.18669335     0.03700
C597        C  0.73918578  0.54689606  0.15081052     0.38300
C598        C  0.60731183  0.43315167  0.16123943     0.38300
C599        C  0.67070498  0.43218733  0.22025368     0.36700
C600        C  0.67720392  0.54753960  0.08959681     0.36700
N601        N  0.66979958  0.40941914  0.24723761    -0.38100
N602        N  0.67932042  0.57194457  0.06419105    -0.38100
N603        N  0.58105141  0.40987314  0.16482799    -0.37500
N604        N  0.76511666  0.57082596  0.15113587    -0.37500
C605        C  0.79469247  0.68238673  0.01290528    -0.04200
C606        C  0.79582073  0.64982133  0.04073137    -0.01300
C607        C  0.82675103  0.62023838  0.03746644     0.03700
C608        C  0.85708849  0.62400773  0.00704574    -0.04200
C609        C  0.85460131  0.65562585  0.97810687    -0.01300
C610        C  0.82381203  0.68505554  0.98130211     0.03700
C611        C  0.76705352  0.64850062  0.07426792     0.38300
C612        C  0.88253888  0.65684861  0.94391696     0.38300
C613        C  0.82242148  0.71869932  0.95235449     0.36700
C614        C  0.82765972  0.58649366  0.06590998     0.36700
N615        N  0.82110699  0.74551162  0.92937845    -0.38100
N616        N  0.82785560  0.55933876  0.08840853    -0.38100
N617        N  0.90436502  0.65741602  0.91628748    -0.37500
N618        N  0.74425096  0.64786575  0.10112892    -0.37500
C619        C  0.86084394  0.35793957  0.98705953    -0.04200
C620        C  0.85313438  0.33828853  0.94974051    -0.01300
C621        C  0.82031792  0.31111112  0.94636575     0.03700
C622        C  0.79395143  0.30476232  0.98000364    -0.04200
C623        C  0.80086873  0.32608084  0.01687469    -0.01300
C624        C  0.83533743  0.35127161  0.02077427     0.03700
C625        C  0.87898434  0.34598799  0.91474730     0.38300
C626        C  0.77504302  0.31985830  0.05209982     0.38300
C627        C  0.84716608  0.36687092  0.06049646     0.36700
C628        C  0.81582787  0.28727624  0.90916832     0.36700
N629        N  0.85726063  0.37828004  0.09236718    -0.38100
N630        N  0.81286627  0.26779638  0.87979987    -0.38100
N631        N  0.75541464  0.31622374  0.08112779    -0.37500
N632        N  0.89907242  0.35227045  0.88652439    -0.37500
C633        C  0.19721362  0.68595585  0.98859376    -0.04200
C634        C  0.20049809  0.64949407  0.96609602    -0.01300
C635        C  0.17098449  0.61855364  0.97101791     0.03700
C636        C  0.13395287  0.62671804  0.99231107    -0.04200
C637        C  0.13030603  0.66398951  0.01373274    -0.01300
C638        C  0.16332496  0.69127812  0.01503478     0.03700
C639        C  0.23303787  0.64400294  0.93673671     0.38300
C640        C  0.09277636  0.67505158  0.03437484     0.38300
C641        C  0.16225176  0.72506214  0.04392362     0.36700
C642        C  0.17946665  0.57861611  0.95387317     0.36700
N643        N  0.16134904  0.75181037  0.06705533    -0.38100
N644        N  0.18708135  0.54663793  0.94088047    -0.38100
N645        N  0.06276127  0.68471763  0.05017671    -0.37500
N646        N  0.25873690  0.63895662  0.91313980    -0.37500
C647        C  0.13675640  0.36178451  0.99378918    -0.04200
C648        C  0.14870749  0.34530916  0.95610206    -0.01300
C649        C  0.17936415  0.31538211  0.95436279     0.03700
C650        C  0.20235765  0.30534825  0.98964904    -0.04200
C651        C  0.19206441  0.32388597  0.02728801    -0.01300
C652        C  0.15859607  0.35123348  0.02953860     0.03700
C653        C  0.12928121  0.35920756  0.91886013     0.38300
C654        C  0.21340402  0.31208950  0.06428146     0.38300
C655        C  0.14521555  0.36659910  0.06883844     0.36700
C656        C  0.18432962  0.29236513  0.91682983     0.36700
N657        N  0.13421701  0.37827473  0.10030527    -0.38100
N658        N  0.18757821  0.27380754  0.88692277    -0.38100
N659        N  0.23008338  0.30275554  0.09403095    -0.37500
N660        N  0.11400009  0.37063010  0.88915449    -0.37500
C661        C  0.85299805  0.49882909  0.85857076    -0.04200
C662        C  0.82251340  0.46826504  0.85767326    -0.01300
C663        C  0.79436579  0.46549814  0.82479705     0.03700
C664        C  0.79291653  0.49568902  0.79386090    -0.04200
C665        C  0.82154275  0.52812353  0.79616855    -0.01300
C666        C  0.85183688  0.52913311  0.82758798     0.03700
C667        C  0.81944073  0.43931620  0.89083394     0.38300
C668        C  0.81909644  0.56136718  0.76711195     0.38300
C669        C  0.88034334  0.56289141  0.82934634     0.36700
C670        C  0.76972901  0.42898777  0.82120391     0.36700
N671        N  0.90269778  0.59019258  0.83083452    -0.38100
N672        N  0.75153007  0.39878497  0.81918670    -0.38100
N673        N  0.81722973  0.58832641  0.74433275    -0.37500
N674        N  0.81531110  0.41668756  0.91754668    -0.37500
C675        C  0.12294980  0.51020625  0.85310040    -0.04200
C676        C  0.14294574  0.54825622  0.85032547    -0.01300
C677        C  0.17600292  0.55323032  0.82337552     0.03700
C678        C  0.18850323  0.52050850  0.79784366    -0.04200
C679        C  0.16542751  0.48422239  0.79721674    -0.01300
C680        C  0.13211901  0.47936868  0.82418422     0.03700
C681        C  0.12715929  0.58339041  0.87227562     0.38300
C682        C  0.17682277  0.45180038  0.76942406     0.38300
C683        C  0.10639774  0.44355666  0.82097205     0.36700
C684        C  0.19563671  0.59280414  0.82008511     0.36700
N685        N  0.08527527  0.41546550  0.81732508    -0.38100
N686        N  0.21089289  0.62454033  0.81707075    -0.38100
N687        N  0.18623101  0.42594521  0.74723396    -0.37500
N688        N  0.11454019  0.61197450  0.88883238    -0.37500
C689        C  0.13551117  0.49788006  0.13087033    -0.04200
C690        C  0.12935478  0.52186174  0.16645544    -0.01300
C691        C  0.16169797  0.52889213  0.19474911     0.03700
C692        C  0.19750270  0.50424477  0.19466801    -0.04200
C693        C  0.20098355  0.47610932  0.16165839    -0.01300
C694        C  0.17359022  0.47749576  0.12779760     0.03700
C695        C  0.08989528  0.54007391  0.17449314     0.38300
C696        C  0.22826173  0.44154203  0.16412303     0.38300
C697        C  0.18562575  0.45818296  0.08989982     0.36700
C698        C  0.15853259  0.56438555  0.22074491     0.36700
N699        N  0.19649459  0.44386964  0.05950058    -0.38100
N700        N  0.15413188  0.59404732  0.23942973    -0.38100
N701        N  0.24774705  0.41205194  0.16475885    -0.37500
N702        N  0.05830787  0.55375723  0.18220911    -0.37500
C703        C  0.85986321  0.48111062  0.13255339    -0.04200
C704        C  0.87106569  0.48652052  0.17422746    -0.01300
C705        C  0.84444704  0.47436148  0.20557367     0.03700
C706        C  0.80232817  0.46982644  0.19761409    -0.04200
C707        C  0.79241662  0.45791071  0.15738991    -0.01300
C708        C  0.81979539  0.46564096  0.12474450     0.03700
C709        C  0.91115254  0.50103845  0.18632571     0.38300
C710        C  0.76025032  0.42822247  0.15137203     0.38300
C711        C  0.80586658  0.45689381  0.08361065     0.36700
C712        C  0.86304140  0.44787075  0.23570801     0.36700
N713        N  0.79403641  0.44979694  0.05104193    -0.38100
N714        N  0.87942210  0.42581132  0.25799954    -0.38100
N715        N  0.73566396  0.40334951  0.14630046    -0.37500
N716        N  0.94310036  0.51232182  0.19635067    -0.37500
C717        C  0.49527737  0.35272914  0.86513748    -0.04200
C718        C  0.46480972  0.35010300  0.83494047    -0.01300
C719        C  0.46460910  0.31704365  0.80751452     0.03700
C720        C  0.49637687  0.28759645  0.80844743    -0.04200
C721        C  0.52606962  0.28951511  0.83953437    -0.01300
C722        C  0.52449545  0.32102385  0.86873914     0.03700
C723        C  0.43331297  0.38106984  0.83209865     0.38300
C724        C  0.56076039  0.26211280  0.83957370     0.38300
C725        C  0.55431393  0.32152221  0.90150485     0.36700
C726        C  0.43250286  0.31443725  0.77693099     0.36700
N727        N  0.57784592  0.32119564  0.92783384    -0.38100
N728        N  0.40702121  0.31248954  0.75248449    -0.38100
N729        N  0.58944631  0.24155928  0.84067503    -0.37500
N730        N  0.40793829  0.40545870  0.82921019    -0.37500
C731        C  0.47556445  0.69471218  0.80652395    -0.04200
C732        C  0.51220101  0.69228072  0.82912876    -0.01300
C733        C  0.51695430  0.66193108  0.85923602     0.03700
C734        C  0.48641340  0.63204900  0.86475600    -0.04200
C735        C  0.44888842  0.63590550  0.84418564    -0.01300
C736        C  0.44340289  0.66698243  0.81516387     0.03700
C737        C  0.54667244  0.71805651  0.81921532     0.38300
C738        C  0.41489748  0.60964590  0.85492864     0.38300
C739        C  0.40498811  0.66910263  0.79297124     0.36700
C740        C  0.55327067  0.66187876  0.88462438     0.36700
N741        N  0.37455663  0.67050817  0.77502098    -0.38100
N742        N  0.58197066  0.66322810  0.90521161    -0.38100
N743        N  0.38740336  0.58955491  0.86406324    -0.37500
N744        N  0.57502996  0.73768333  0.81186981    -0.37500
C745        C  0.51752015  0.69330346  0.18598281    -0.04200
C746        C  0.54953297  0.66438868  0.18158306    -0.01300
C747        C  0.54554411  0.63172372  0.15404816     0.03700
C748        C  0.51075429  0.62904212  0.12896090    -0.04200
C749        C  0.48107280  0.66028072  0.13003443    -0.01300
C750        C  0.48337060  0.69121739  0.15973554     0.03700
C751        C  0.58674876  0.66801354  0.20559740     0.38300
C752        C  0.44811335  0.66079792  0.10034088     0.38300
C753        C  0.44886399  0.71838065  0.16458721     0.36700
C754        C  0.57812679  0.60196756  0.15055226     0.36700
N755        N  0.42015767  0.73878817  0.16705482    -0.38100
N756        N  0.60461073  0.57873689  0.14840045    -0.38100
N757        N  0.42264450  0.66190298  0.07585344    -0.37500
N758        N  0.61654007  0.67111826  0.22439212    -0.37500
C759        C  0.52338991  0.28610335  0.18377510    -0.04200
C760        C  0.49969692  0.32025301  0.19551846    -0.01300
C761        C  0.49353817  0.35315595  0.16833660     0.03700
C762        C  0.50715242  0.35031313  0.12741307    -0.04200
C763        C  0.52642201  0.31309898  0.11465743    -0.01300
C764        C  0.53696237  0.28278186  0.14343294     0.03700
C765        C  0.48130399  0.32128061  0.23577346     0.38300
C766        C  0.53618001  0.30514502  0.07220333     0.38300
C767        C  0.56256916  0.24847330  0.13178784     0.36700
C768        C  0.47315199  0.38959333  0.18313564     0.36700
N769        N  0.58317091  0.22120961  0.12273472    -0.38100
N770        N  0.45734491  0.41854664  0.19587163    -0.38100
N771        N  0.54379864  0.29796483  0.03847915    -0.37500
N772        N  0.46624876  0.32167892  0.26766054    -0.37500
C773        C  0.63238340  0.13081336  0.99433231    -0.04200
C774        C  0.66638282  0.12976471  0.02060880    -0.01300
C775        C  0.69095041  0.16450543  0.02472324     0.03700
C776        C  0.68658886  0.19744057  0.99707769    -0.04200
C777        C  0.65252428  0.19887816  0.97095671    -0.01300
C778        C  0.62398132  0.16690182  0.97164763     0.03700
C779        C  0.67742833  0.09279578  0.04237544     0.38300
C780        C  0.64804217  0.23092028  0.94082506     0.38300
C781        C  0.58687669  0.17127986  0.94772838     0.36700
C782        C  0.72246020  0.16538516  0.05602404     0.36700
N783        N  0.55728869  0.17654010  0.92913905    -0.38100
N784        N  0.74731330  0.16602328  0.08117347    -0.38100
N785        N  0.64324588  0.25546848  0.91590215    -0.37500
N786        N  0.68757674  0.06333361  0.05906578    -0.37500
C787        C  0.36647865  0.85604018  0.99437970    -0.04200
C788        C  0.36581571  0.82183577  0.02090665    -0.01300
C789        C  0.33567581  0.79128990  0.01608589     0.03700
C790        C  0.30930560  0.79231425  0.98195525    -0.04200
C791        C  0.31377149  0.82407815  0.95279871    -0.01300
C792        C  0.34036950  0.85676606  0.96021948     0.03700
C793        C  0.39577558  0.81790104  0.05328382     0.38300
C794        C  0.29026264  0.82380878  0.91506563     0.38300
C795        C  0.34266188  0.88991271  0.93087014     0.36700
C796        C  0.33015049  0.76097601  0.04781106     0.36700
N797        N  0.34431492  0.91606469  0.90723568    -0.38100
N798        N  0.32590034  0.73731676  0.07368058    -0.38100
N799        N  0.27167668  0.82390540  0.88497699    -0.37500
N800        N  0.41991128  0.81354757  0.07873769    -0.37500
C801        C  0.63154394  0.85306384  0.00102730    -0.04200
C802        C  0.64250805  0.82652036  0.96907127    -0.01300
C803        C  0.66960598  0.79401467  0.97672680     0.03700
C804        C  0.68654175  0.78914439  0.01611593    -0.04200
C805        C  0.67436151  0.81543036  0.04824677    -0.01300
C806        C  0.64545532  0.84598601  0.04099314     0.03700
C807        C  0.62666667  0.83329376  0.92825580     0.38300
C808        C  0.69319766  0.81287669  0.08837623     0.38300
C809        C  0.62776691  0.86812306  0.07513309     0.36700
C810        C  0.68230040  0.76789726  0.94333426     0.36700
N811        N  0.61282115  0.88453859  0.10260319    -0.38100
N812        N  0.69201062  0.74741818  0.91623872    -0.38100
N813        N  0.70851983  0.81134884  0.12021602    -0.37500
N814        N  0.61427157  0.83872258  0.89560914    -0.37500
C815        C  0.31348489  0.19869002  0.00000776    -0.04200
C816        C  0.34672935  0.20053968  0.97293297    -0.01300
C817        C  0.37884991  0.17200536  0.97656199     0.03700
C818        C  0.37506083  0.13802635  0.00321563    -0.04200
C819        C  0.34546621  0.14001551  0.03402514    -0.01300
C820        C  0.31418768  0.16947148  0.03196626     0.03700
C821        C  0.34682987  0.22913191  0.93920758     0.38300
C822        C  0.35143449  0.11672550  0.07108910     0.38300
C823        C  0.28215678  0.16910564  0.06242103     0.36700
C824        C  0.41701541  0.18038795  0.95605967     0.36700
N825        N  0.25643941  0.16894231  0.08650783    -0.38100
N826        N  0.44787152  0.18865798  0.94117178    -0.38100
N827        N  0.35763626  0.10012059  0.10163130    -0.37500
N828        N  0.34770829  0.25098839  0.91148513    -0.37500
C829        C  0.50298905  0.12738337  0.85967777    -0.04200
C830        C  0.53959562  0.13617225  0.83899974    -0.01300
C831        C  0.54012434  0.16558050  0.80729519     0.03700
C832        C  0.50547271  0.19043194  0.79958597    -0.04200
C833        C  0.46984804  0.18353418  0.82273092    -0.01300
C834        C  0.46778243  0.15019698  0.85009979     0.03700
C835        C  0.57720375  0.11653586  0.85185087     0.38300
C836        C  0.43468226  0.20982525  0.81777840     0.38300
C837        C  0.42887840  0.13813071  0.86684197     0.36700
C838        C  0.57717439  0.17128966  0.78416076     0.36700
N839        N  0.39759840  0.12850714  0.87978174    -0.38100
N840        N  0.60754239  0.17519731  0.76675057    -0.38100
N841        N  0.40606210  0.23029772  0.81465856    -0.37500
N842        N  0.60732991  0.10158023  0.86274002    -0.37500
C843        C  0.48784045  0.79114479  0.79390921    -0.04200
C844        C  0.52098961  0.81914828  0.79384864    -0.01300
C845        C  0.52435657  0.85022829  0.82435537     0.03700
C846        C  0.49588011  0.85282981  0.85671166    -0.04200
C847        C  0.46389171  0.82392534  0.85745342    -0.01300
C848        C  0.45876977  0.79502483  0.82558955     0.03700
C849        C  0.55258768  0.81556518  0.76333012     0.38300
C850        C  0.43540001  0.82387821  0.89098370     0.38300
C851        C  0.42114844  0.77200803  0.82381422     0.36700
C852        C  0.55833343  0.87847047  0.82331852     0.36700
N853        N  0.39030043  0.75494065  0.82298993    -0.38100
N854        N  0.58569580  0.90073832  0.82233836    -0.38100
N855        N  0.41287750  0.82252189  0.91793477    -0.37500
N856        N  0.57837481  0.81319129  0.73942263    -0.37500
C857        C  0.50190949  0.84904106  0.12775479    -0.04200
C858        C  0.53095130  0.81710302  0.12677621    -0.01300
C859        C  0.53590005  0.79083023  0.16062988     0.03700
C860        C  0.50703359  0.79032009  0.19262233    -0.04200
C861        C  0.47390138  0.81812272  0.19029607    -0.01300
C862        C  0.47203894  0.84791253  0.15874617     0.03700
C863        C  0.55273081  0.80770651  0.08958586     0.38300
C864        C  0.44000186  0.81424068  0.21818276     0.38300
C865        C  0.43603716  0.87315714  0.15440255     0.36700
C866        C  0.57264942  0.76660082  0.16342840     0.36700
N867        N  0.40645251  0.89184172  0.14970929    -0.38100
N868        N  0.60283699  0.74843077  0.16523545    -0.38100
N869        N  0.41204200  0.81112561  0.23938788    -0.37500
N870        N  0.56885026  0.79778629  0.05982574    -0.37500
C871        C  0.50368585  0.12586440  0.13574715    -0.04200
C872        C  0.48178413  0.16322722  0.13173408    -0.01300
C873        C  0.48253879  0.19302503  0.16336123     0.03700
C874        C  0.50961296  0.18907616  0.19684108    -0.04200
C875        C  0.53318568  0.15274750  0.19966316    -0.01300
C876        C  0.52672456  0.12000049  0.17210313     0.03700
C877        C  0.45735823  0.17120160  0.09569411     0.38300
C878        C  0.56391852  0.14840867  0.23127944     0.38300
C879        C  0.54286062  0.08009238  0.18268860     0.36700
C880        C  0.45437604  0.22714777  0.16195657     0.36700
N881        N  0.55502247  0.04826270  0.19221477    -0.38100
N882        N  0.43151237  0.25408521  0.16050217    -0.38100
N883        N  0.58832154  0.14472877  0.25660680    -0.37500
N884        N  0.43811577  0.17876258  0.06702650    -0.37500
C885        C  0.31197594  0.98818770  0.19903128    -0.04200
C886        C  0.30496520  0.01088100  0.16276088    -0.01300
C887        C  0.33253029  0.00832346  0.13031325     0.03700
C888        C  0.37253637  0.99350486  0.13740416    -0.04200
C889        C  0.38257448  0.97975165  0.17759419    -0.01300
C890        C  0.35124953  0.97216061  0.20604892     0.03700
C891        C  0.26853141  0.03586012  0.15787670     0.38300
C892        C  0.42440964  0.97232956  0.19023255     0.38300
C893        C  0.35931384  0.94525035  0.24022739     0.36700
C894        C  0.31832635  0.02006806  0.08989661     0.36700
N895        N  0.36663736  0.92325192  0.26691238    -0.38100
N896        N  0.30662695  0.02895353  0.05771994    -0.38100
N897        N  0.45768724  0.96685704  0.20080102    -0.37500
N898        N  0.23967667  0.05581502  0.15358593    -0.37500
C899        C  0.68834936  0.00002000  0.79035868    -0.04200
C900        C  0.69427377  0.97033078  0.82127840    -0.01300
C901        C  0.66531727  0.96562193  0.85246044     0.03700
C902        C  0.62837586  0.98763629  0.85072731    -0.04200
C903        C  0.61944645  0.01114779  0.81528210    -0.01300
C904        C  0.65044825  0.01989723  0.78704418     0.03700
C905        C  0.73040258  0.94461643  0.82104259     0.38300
C906        C  0.57871759  0.02670858  0.80721541     0.38300
C907        C  0.64361149  0.05149833  0.75682835     0.36700
C908        C  0.67339519  0.93743757  0.88569336     0.36700
N909        N  0.63646102  0.07733663  0.73380294    -0.38100
N910        N  0.68029794  0.91509025  0.91218648    -0.38100
N911        N  0.54628679  0.03853703  0.79965923    -0.37500
N912        N  0.75899182  0.92387202  0.82049058    -0.37500
C913        C  0.31153518  0.00441118  0.79180683    -0.04200
C914        C  0.31114462  0.03489324  0.82272659    -0.01300
C915        C  0.33742415  0.03192882  0.85662511     0.03700
C916        C  0.36695746  0.00070739  0.85809589    -0.04200
C917        C  0.36996163  0.97263241  0.82516577    -0.01300
C918        C  0.34163627  0.97375113  0.79278371     0.03700
C919        C  0.28139819  0.06786207  0.82113223     0.38300
C920        C  0.40041075  0.94044811  0.82584339     0.38300
C921        C  0.34143443  0.94095287  0.76297543     0.36700
C922        C  0.33286340  0.06021556  0.89045891     0.36700
N923        N  0.34195094  0.91413220  0.73993242    -0.38100
N924        N  0.32839346  0.08258684  0.91747625    -0.38100
N925        N  0.42459312  0.91471587  0.82605349    -0.37500
N926        N  0.25729743  0.09370597  0.81989267    -0.37500
C927        C  0.49401827  0.13430351  0.36299080    -0.04200
C928        C  0.49834637  0.17658848  0.37207976    -0.01300
C929        C  0.50008526  0.20551274  0.34015245     0.03700
C930        C  0.49992625  0.19280539  0.29871257    -0.04200
C931        C  0.48514355  0.15335931  0.29063403    -0.01300
C932        C  0.48703631  0.12324075  0.32121103     0.03700
C933        C  0.50327619  0.19103071  0.41372690     0.38300
C934        C  0.45978321  0.14543725  0.25529031     0.38300
C935        C  0.48252261  0.08107929  0.30790472     0.36700
C936        C  0.49925431  0.24882306  0.35004423     0.36700
N937        N  0.47914406  0.04764784  0.29676973    -0.38100
N938        N  0.49842961  0.28328917  0.35803284    -0.38100
N939        N  0.43819859  0.13788925  0.22828669    -0.37500
N940        N  0.50744080  0.20283874  0.44679952    -0.37500
C941        C  0.50419852  0.86528207  0.35264837    -0.04200
C942        C  0.47959671  0.83004473  0.35580758    -0.01300
C943        C  0.47585477  0.80351237  0.32245028     0.03700
C944        C  0.50337896  0.80638129  0.28944562    -0.04200
C945        C  0.52917179  0.84066218  0.28658952    -0.01300
C946        C  0.52718806  0.87163610  0.31659060    -0.10100
C947        C  0.46045246  0.81877770  0.39403801     0.38300
C948        C  0.56032015  0.84240696  0.25538636     0.38300
C949        C  0.55070700  0.90871060  0.31115566     0.36700
C950        C  0.44531001  0.77132301  0.32337505     0.36700
N951        N  0.56890445  0.93853075  0.30602837    -0.38100
N952        N  0.42085577  0.74585511  0.32403959    -0.38100
N953        N  0.58576723  0.84383891  0.23105806    -0.37500
N954        N  0.44634055  0.80830798  0.42460495    -0.37500
C955        C  0.51376227  0.17569271  0.70485484    -0.04200
C956        C  0.48235681  0.14625327  0.70518426    -0.01300
C957        C  0.48377121  0.11350477  0.67752384     0.03700
C958        C  0.51125032  0.11473794  0.64454159    -0.04200
C959        C  0.54590915  0.13948311  0.64832420    -0.01300
C960        C  0.54699995  0.17054781  0.67787503     0.03700
C961        C  0.44602679  0.15139871  0.72957751     0.38300
C962        C  0.58264690  0.12847775  0.62690606     0.38300
C963        C  0.58142771  0.19837977  0.67914292     0.36700
C964        C  0.46188602  0.07630650  0.68696394     0.36700
N965        N  0.60853379  0.22096994  0.68024180    -0.38100
N966        N  0.44636364  0.04593004  0.69612182    -0.38100
N967        N  0.61276515  0.11902627  0.61138190    -0.37500
N968        N  0.41574233  0.15442515  0.74732690    -0.37500
C969        C  0.49259647  0.85322950  0.62729316    -0.04200
C970        C  0.46862681  0.86203971  0.66234493    -0.01300
C971        C  0.46740319  0.83473233  0.69547947     0.03700
C972        C  0.49099285  0.79895525  0.69465784    -0.04200
C973        C  0.51666614  0.79124001  0.66072983    -0.01300
C974        C  0.51479141  0.81628246  0.62593342     0.03700
C975        C  0.44212292  0.89748755  0.66350780     0.38300
C976        C  0.54442729  0.75654301  0.66133628     0.38300
C977        C  0.53353440  0.80224158  0.58837823     0.36700
C978        C  0.44013877  0.84280371  0.72927089     0.36700
N979        N  0.54780396  0.79021250  0.55840166    -0.38100
N980        N  0.41818559  0.85021352  0.75582606    -0.38100
N981        N  0.56660714  0.72901057  0.66217671    -0.37500
N982        N  0.42043495  0.92525262  0.66575570    -0.37500
C983        C  0.35785381  0.99541404  0.36156509    -0.04200
C984        C  0.35580177  0.02366331  0.32885392    -0.01300
C985        C  0.32595048  0.01947013  0.29741652     0.03700
C986        C  0.29849388  0.98600392  0.29725147    -0.04200
C987        C  0.29947967  0.95902438  0.33099367    -0.01300
C988        C  0.32610007  0.96616736  0.36434981     0.03700
C989        C  0.37940495  0.06086078  0.33119046     0.38300
C990        C  0.27397583  0.92291876  0.33123987     0.38300
C991        C  0.31718481  0.94673448  0.40298410     0.36700
C992        C  0.32118694  0.05149974  0.26724701     0.36700
N993        N  0.30856147  0.93267737  0.43417233    -0.38100
N994        N  0.31713561  0.07734773  0.24347899    -0.38100
N995        N  0.25393903  0.89383382  0.33174314    -0.37500
N996        N  0.39631256  0.09176840  0.33339244    -0.37500
C997        C  0.63822317  0.99412675  0.63108196    -0.04200
C998        C  0.64012429  0.96528778  0.66347255    -0.01300
C999        C  0.67264569  0.96663459  0.69241084     0.03700
C1000       C  0.69931997  0.00053340  0.69364387    -0.04200
C1001       C  0.69356541  0.03169717  0.66449618    -0.01300
C1002       C  0.66777763  0.02561861  0.63056542     0.03700
C1003       C  0.60899501  0.93413304  0.66713196     0.38300
C1004       C  0.70622636  0.07293155  0.67393018     0.38300
C1005       C  0.67243257  0.05210063  0.59549525     0.36700
C1006       C  0.67845688  0.93334862  0.72085081     0.36700
N1007       N  0.67758319  0.07274254  0.56732685    -0.38100
N1008       N  0.68311807  0.90639391  0.74322706    -0.38100
N1009       N  0.71307952  0.10661542  0.68230369    -0.37500
N1010       N  0.58370032  0.90977239  0.67073749    -0.37500
C1011       C  0.36008749  0.99422919  0.63164943    -0.04200
C1012       C  0.35469150  0.02877549  0.65714410    -0.01300
C1013       C  0.32521648  0.02865037  0.68899506     0.03700
C1014       C  0.29870428  0.99493797  0.69447882    -0.04200
C1015       C  0.30139857  0.96223933  0.66615727    -0.01300
C1016       C  0.33064144  0.96277757  0.63429762     0.03700
C1017       C  0.37384917  0.06695461  0.64583340     0.38300
C1018       C  0.27525338  0.92685422  0.67015507     0.38300
C1019       C  0.32717679  0.93334663  0.60152745     0.36700
C1020       C  0.32004305  0.06478342  0.71398816     0.36700
N1021       N  0.32248058  0.91133998  0.57430925    -0.38100
N1022       N  0.31573891  0.09416192  0.73320209    -0.38100
N1023       N  0.25539704  0.89773211  0.67232680    -0.37500
N1024       N  0.38764901  0.09799694  0.63614969    -0.37500
C1025       C  0.63951348  0.01055869  0.12696053    -0.04200
C1026       C  0.66888783  0.98311194  0.14206781    -0.01300
C1027       C  0.69096642  0.99264560  0.17797646     0.03700
C1028       C  0.68659878  0.03138546  0.19693707    -0.04200
C1029       C  0.66116791  0.06084125  0.17795009    -0.01300
C1030       C  0.63757514  0.05029235  0.14344415     0.03700
C1031       C  0.68176840  0.94899517  0.11713122     0.38300
C1032       C  0.66212303  0.10321281  0.19080087     0.38300
C1033       C  0.61533478  0.08180218  0.12142253     0.36700
C1034       C  0.72190681  0.96434801  0.19228459     0.36700
N1035       N  0.59865389  0.10715434  0.10326544    -0.38100
N1036       N  0.74683712  0.94162819  0.20280566    -0.38100
N1037       N  0.66265517  0.13760170  0.19905378    -0.37500
N1038       N  0.69486904  0.92310520  0.09698108    -0.37500
C1039       C  0.69568482  0.02214832  0.29494971    -0.04200
C1040       C  0.66963191  0.05421996  0.30787735    -0.01300
C1041       C  0.63859313  0.04741772  0.33715700     0.03700
C1042       C  0.63355780  0.00865152  0.35545531    -0.04200
C1043       C  0.65901086  0.97624663  0.34216019    -0.01300
C1044       C  0.69027778  0.98307931  0.31269099     0.03700
C1045       C  0.67708132  0.09545835  0.29382051     0.38300
C1046       C  0.65110358  0.93526658  0.35679478     0.38300
C1047       C  0.71683362  0.94983661  0.30086578     0.36700
C1048       C  0.61231152  0.08096884  0.34925854     0.36700
N1049       N  0.73792040  0.92282821  0.29219885    -0.38100
N1050       N  0.59154912  0.10789129  0.35887986    -0.38100
N1051       N  0.64401304  0.90251493  0.36804160    -0.37500
N1052       N  0.68363564  0.12884881  0.28431172    -0.37500
C1053       C  0.30136594  0.80376699  0.46762441    -0.04200
C1054       C  0.31717954  0.80931848  0.50753201    -0.01300
C1055       C  0.35156914  0.83437808  0.51407100     0.03700
C1056       C  0.36960318  0.85484385  0.48105714    -0.04200
C1057       C  0.35475106  0.84870580  0.44116990    -0.01300
C1058       C  0.32153110  0.82242220  0.43430030     0.03700
C1059       C  0.30119100  0.78599353  0.54142887     0.38300
C1060       C  0.37426563  0.86887740  0.40688958     0.38300
C1061       C  0.31063720  0.81243316  0.39253320     0.36700
C1062       C  0.36956593  0.83778805  0.55447709     0.36700
N1063       N  0.30371459  0.80457356  0.35876825    -0.38100
N1064       N  0.38378158  0.84059406  0.58674414    -0.38100
N1065       N  0.38951299  0.88494240  0.37943995    -0.37500
N1066       N  0.28991692  0.76725843  0.56907824    -0.37500
C1067       C  0.70691794  0.80752066  0.49801176    -0.04200
C1068       C  0.67727750  0.80854094  0.52945027    -0.01300
C1069       C  0.64870051  0.84054131  0.53102248     0.03700
C1070       C  0.64763649  0.86991400  0.49985815    -0.04200
C1071       C  0.68196751  0.87351116  0.47402289    -0.01300
C1072       C  0.71076234  0.84152500  0.47192110     0.03700
C1073       C  0.67570976  0.77634868  0.55989314     0.38300
C1074       C  0.68980739  0.91121717  0.45231587     0.38300
C1075       C  0.74288996  0.84335197  0.44177293     0.36700
C1076       C  0.62476523  0.84712750  0.56748216     0.36700
N1077       N  0.76831969  0.84606834  0.41754212    -0.38100
N1078       N  0.60720911  0.85398942  0.59726260    -0.38100
N1079       N  0.69752774  0.94184874  0.43651796    -0.37500
N1080       N  0.67453183  0.75069394  0.58415710    -0.37500
C1081       C  0.70106192  0.18560548  0.51261230    -0.04200
C1082       C  0.70095725  0.15759713  0.47971635    -0.01300
C1083       C  0.66877357  0.12911919  0.47548022     0.03700
C1084       C  0.63272657  0.13336711  0.49893079    -0.04200
C1085       C  0.63079887  0.16501593  0.52787609    -0.01300
C1086       C  0.66649142  0.18613415  0.53874968     0.03700
C1087       C  0.73080700  0.15997447  0.44755673     0.38300
C1088       C  0.59208380  0.17771374  0.54501319     0.38300
C1089       C  0.66693943  0.20930078  0.57658291     0.36700
C1090       C  0.67235303  0.09678327  0.44543189     0.36700
N1091       N  0.66747698  0.22804845  0.60654131    -0.38100
N1092       N  0.67630768  0.07069697  0.42194720    -0.38100
N1093       N  0.56115100  0.18869500  0.55794968    -0.37500
N1094       N  0.75280159  0.16076148  0.42009839    -0.37500
C1095       C  0.29035211  0.17554005  0.49222618    -0.04200
C1096       C  0.32066316  0.17516595  0.46152511    -0.01300
C1097       C  0.35261654  0.14669603  0.46318961     0.03700
C1098       C  0.35380985  0.11744465  0.49456450    -0.04200
C1099       C  0.32012529  0.11377561  0.52126768    -0.01300
C1100       C  0.28949566  0.14400612  0.52145031     0.03700
C1101       C  0.32102856  0.20645890  0.43006710     0.38300
C1102       C  0.31675245  0.07936710  0.54886891     0.38300
C1103       C  0.26017586  0.14482898  0.55442938     0.36700
C1104       C  0.38389271  0.14724780  0.43207971     0.36700
N1105       N  0.23764547  0.14506071  0.58151664    -0.38100
N1106       N  0.40846844  0.14802525  0.40691097    -0.38100
N1107       N  0.31250180  0.05162439  0.57026734    -0.37500
N1108       N  0.32167373  0.23166678  0.40532813    -0.37500
C1109       C  0.85628861  0.98487567  0.62478358    -0.04200
C1110       C  0.82765627  0.01674316  0.62053499    -0.01300
C1111       C  0.80365456  0.02769493  0.65365061     0.03700
C1112       C  0.79549553  0.99872316  0.68406697    -0.04200
C1113       C  0.81767801  0.96145407  0.68391954    -0.01300
C1114       C  0.85017995  0.95591212  0.65602202     0.03700
C1115       C  0.81815211  0.03470811  0.58132338     0.38300
C1116       C  0.80853398  0.92980782  0.71339811     0.38300
C1117       C  0.87382934  0.91853524  0.65649010     0.36700
C1118       C  0.79776391  0.07085692  0.66069371     0.36700
N1119       N  0.89145565  0.88788853  0.65616888    -0.38100
N1120       N  0.79631121  0.10573481  0.66639429    -0.38100
N1121       N  0.80146957  0.90396568  0.73638690    -0.37500
N1122       N  0.80832599  0.04755692  0.54990343    -0.37500
C1123       C  0.20164966  0.98736853  0.68528402    -0.04200
C1124       C  0.17224471  0.95567956  0.68385549    -0.01300
C1125       C  0.13923281  0.95803235  0.65662695     0.03700
C1126       C  0.13695710  0.99014284  0.62816685    -0.04200
C1127       C  0.16870274  0.01941298  0.62667532    -0.01300
C1128       C  0.19949786  0.01949593  0.65673821     0.03700
C1129       C  0.17465662  0.92142276  0.71205854     0.38300
C1130       C  0.16958836  0.05009955  0.59481185     0.38300
C1131       C  0.22555064  0.05504597  0.66064424     0.36700
C1132       C  0.10784808  0.92701339  0.65816927     0.36700
N1133       N  0.24491046  0.08448626  0.66316233    -0.38100
N1134       N  0.08322210  0.90192683  0.66060970    -0.38100
N1135       N  0.17149224  0.07417030  0.56908176    -0.37500
N1136       N  0.17643745  0.89419521  0.73452331    -0.37500
C1137       C  0.13645152  0.98452667  0.36302311    -0.04200
C1138       C  0.13171104  0.95817919  0.32922978    -0.01300
C1139       C  0.16578243  0.94868886  0.30530115     0.03700
C1140       C  0.20024788  0.97502634  0.30526639    -0.04200
C1141       C  0.20382775  0.00366629  0.33743762    -0.01300
C1142       C  0.17509050  0.00325166  0.36929429     0.03700
C1143       C  0.09328134  0.93769589  0.32082401     0.38300
C1144       C  0.23383944  0.03599779  0.33732856     0.38300
C1145       C  0.18690657  0.02020462  0.40853385     0.36700
C1146       C  0.16572665  0.91067042  0.28227873     0.36700
N1147       N  0.19739844  0.03241514  0.44003937    -0.38100
N1148       N  0.16564189  0.88010165  0.26446187    -0.38100
N1149       N  0.25638010  0.06315054  0.33884522    -0.37500
N1150       N  0.06276764  0.92144647  0.31359328    -0.37500
C1151       C  0.79461057  0.02262469  0.30373530    -0.04200
C1152       C  0.79323136  0.03971341  0.34305234    -0.01300
C1153       C  0.82317322  0.02960840  0.37254657     0.03700
C1154       C  0.85828278  0.00629751  0.36162076    -0.04200
C1155       C  0.86098271  0.99159120  0.32101765    -0.01300
C1156       C  0.82844008  0.99769553  0.29322588     0.03700
C1157       C  0.76376066  0.07139933  0.35197693     0.38300
C1158       C  0.89782763  0.97175594  0.30659052     0.38300
C1159       C  0.83104145  0.97959053  0.25282724     0.36700
C1160       C  0.81787788  0.04529355  0.41359547     0.36700
N1161       N  0.83404411  0.96494235  0.22081426    -0.38100
N1162       N  0.81205414  0.05766873  0.44614164    -0.38100
N1163       N  0.92730035  0.95671513  0.29429375    -0.37500
N1164       N  0.74127289  0.09762243  0.35918276    -0.37500
C1165       C  0.20437220  0.79922648  0.48150958    -0.04200
C1166       C  0.18465866  0.80413457  0.51963562    -0.01300
C1167       C  0.15393090  0.83446479  0.52490044     0.03700
C1168       C  0.14078698  0.85858997  0.49159966    -0.04200
C1169       C  0.16086076  0.85382898  0.45394316    -0.01300
C1170       C  0.19215476  0.82460845  0.44886145     0.03700
C1171       C  0.19485960  0.77750778  0.55334967     0.38300
C1172       C  0.14720286  0.87698932  0.41909497     0.38300
C1173       C  0.20803424  0.81741622  0.40833618     0.36700
C1174       C  0.13709396  0.84182990  0.56497568     0.36700
N1175       N  0.21834537  0.81141991  0.37515899    -0.38100
N1176       N  0.12450022  0.84775128  0.59736417    -0.38100
N1177       N  0.13576605  0.89417076  0.39058824    -0.37500
N1178       N  0.20170346  0.75659246  0.58099994    -0.37500
C1179       C  0.80257597  0.78767971  0.49233320    -0.04200
C1180       C  0.83355261  0.78934926  0.46222704    -0.01300
C1181       C  0.86585234  0.81802338  0.46533130     0.03700
C1182       C  0.86469537  0.84970256  0.49470761    -0.04200
C1183       C  0.83312221  0.84883639  0.52395395    -0.01300
C1184       C  0.80441045  0.81645558  0.52457851     0.03700
C1185       C  0.83084085  0.76469989  0.42564409     0.38300
C1186       C  0.82977901  0.88120919  0.55376659     0.38300
C1187       C  0.77832736  0.81193641  0.55978553     0.36700
C1188       C  0.90012576  0.81468135  0.43781930     0.36700
N1189       N  0.75876631  0.80883262  0.58892681    -0.38100
N1190       N  0.92781524  0.81049936  0.41650067    -0.38100
N1191       N  0.82563627  0.90722537  0.57724129    -0.37500
N1192       N  0.82999359  0.74683763  0.39516785    -0.37500
C1193       C  0.86246064  0.12872157  0.50120619    -0.04200
C1194       C  0.85456683  0.15454109  0.46744759    -0.01300
C1195       C  0.82546740  0.18665066  0.47025800     0.03700
C1196       C  0.80074002  0.19092083  0.50536145    -0.04200
C1197       C  0.80938414  0.16578729  0.53942995    -0.01300
C1198       C  0.84201777  0.13716138  0.53819368     0.03700
C1199       C  0.87714228  0.14881031  0.42998735     0.38300
C1200       C  0.78748227  0.17264927  0.57712003     0.38300
C1201       C  0.85852009  0.12083673  0.57587421     0.36700
C1202       C  0.82081647  0.21521577  0.43679887     0.36700
N1203       N  0.87285799  0.10856020  0.60577298    -0.38100
N1204       N  0.81706479  0.23791729  0.40998176    -0.38100
N1205       N  0.77003338  0.17860863  0.60718083    -0.37500
N1206       N  0.89506331  0.14449796  0.39995571    -0.37500
C1207       C  0.19489183  0.19255327  0.49715362    -0.04200
C1208       C  0.16688939  0.18841128  0.52967031    -0.01300
C1209       C  0.13640388  0.15765890  0.52889411     0.03700
C1210       C  0.13308261  0.13036490  0.49557401    -0.04200
C1211       C  0.15913147  0.13626367  0.46176917    -0.01300
C1212       C  0.19041123  0.16632925  0.46292816     0.03700
C1213       C  0.17022983  0.21461651  0.56510486     0.38300
C1214       C  0.15045377  0.11492511  0.42394928     0.38300
C1215       C  0.21577112  0.17237407  0.42734907     0.36700
C1216       C  0.10846065  0.15404187  0.56283386     0.36700
N1217       N  0.23489483  0.17745154  0.39818262    -0.38100
N1218       N  0.08621209  0.15154599  0.59000754    -0.38100
N1219       N  0.14251764  0.09914390  0.39331418    -0.37500
N1220       N  0.17205349  0.23494163  0.59395799    -0.37500
C1221       C  0.00280998  0.68175411  0.19486576    -0.04200
C1222       C  0.96660420  0.65886825  0.19048396    -0.01300
C1223       C  0.96360613  0.62952553  0.15918370     0.03700
C1224       C  0.99783199  0.62089849  0.13477371    -0.04200
C1225       C  0.03507596  0.64083067  0.14195035    -0.01300
C1226       C  0.03659369  0.67351058  0.16938171     0.03700
C1227       C  0.93120254  0.66799796  0.21527588     0.38300
C1228       C  0.07214540  0.62679364  0.12225420     0.38300
C1229       C  0.07175278  0.70048288  0.16878185     0.36700
C1230       C  0.92480530  0.61005109  0.15063390     0.36700
N1231       N  0.09942354  0.72237773  0.16769440    -0.38100
N1232       N  0.89353347  0.59516022  0.14385547    -0.38100
N1233       N  0.10194169  0.61490856  0.10757328    -0.37500
N1234       N  0.90247486  0.67471414  0.23455675    -0.37500
C1235       C  0.99438046  0.78965551  0.30274131    -0.04200
C1236       C  0.02581129  0.79007455  0.33202667    -0.01300
C1237       C  0.02569929  0.81998920  0.36293573     0.03700
C1238       C  0.99578877  0.85126947  0.36282175    -0.04200
C1239       C  0.96228728  0.84821459  0.33604770    -0.01300
C1240       C  0.96189290  0.81800794  0.30561879     0.03700
C1241       C  0.05980657  0.76194458  0.32859251     0.38300
C1242       C  0.92603092  0.87253865  0.34315137     0.38300
C1243       C  0.92827773  0.81652701  0.27664254     0.36700
C1244       C  0.05520706  0.81733539  0.39576680     0.36700
N1245       N  0.90164161  0.81496772  0.25343094    -0.38100
N1246       N  0.07751370  0.81420538  0.42297279    -0.38100
N1247       N  0.89633209  0.89034273  0.34997683    -0.37500
N1248       N  0.08717000  0.73981472  0.32559674    -0.37500
C1249       C  0.98173819  0.30678524  0.78556383    -0.04200
C1250       C  0.00996479  0.29996226  0.81746123    -0.01300
C1251       C  0.01175111  0.32674789  0.85105308     0.03700
C1252       C  0.98969528  0.36393318  0.85032650    -0.04200
C1253       C  0.96490888  0.37288543  0.81561160    -0.01300
C1254       C  0.95918466  0.34330344  0.78474576     0.03700
C1255       C  0.03673528  0.26461128  0.81606564     0.38300
C1256       C  0.94340905  0.41153444  0.81201422     0.38300
C1257       C  0.92813663  0.34945103  0.75380129     0.36700
C1258       C  0.03495515  0.31458149  0.88677645     0.36700
N1259       N  0.90278318  0.35456454  0.72971312    -0.38100
N1260       N  0.05255836  0.30371375  0.91545418    -0.38100
N1261       N  0.92665708  0.44245629  0.80827551    -0.37500
N1262       N  0.05845269  0.23675740  0.81464259    -0.37500
C1263       C  0.00023694  0.12887336  0.62905038    -0.04200
C1264       C  0.02067856  0.12626334  0.66701807    -0.01300
C1265       C  0.01987113  0.15992947  0.69415751     0.03700
C1266       C  0.00211167  0.19774213  0.68208210    -0.04200
C1267       C  0.99174551  0.20241803  0.64087801    -0.01300
C1268       C  0.98540930  0.16782540  0.61643367     0.03700
C1269       C  0.04375468  0.08990575  0.67766455     0.38300
C1270       C  0.00014431  0.24033738  0.62024259     0.38300
C1271       C  0.96368920  0.17372071  0.57819864     0.36700
C1272       C  0.03780189  0.15574671  0.73447851     0.36700
N1273       N  0.94635728  0.17932935  0.54790178    -0.38100
N1274       N  0.05201359  0.15187036  0.76661990    -0.38100
N1275       N  0.00930997  0.26904038  0.60186563    -0.37500
N1276       N  0.06272170  0.06118417  0.68585813    -0.37500
C1277       C  0.01296784  0.68602337  0.79242145    -0.04200
C1278       C  0.00499526  0.70040882  0.83254986    -0.01300
C1279       C  0.99855210  0.67292452  0.86517397     0.03700
C1280       C  0.99835243  0.63009236  0.85805187    -0.04200
C1281       C  0.00029015  0.61651207  0.81649264    -0.01300
C1282       C  0.00417338  0.64468855  0.78421155     0.03700
C1283       C  0.00124804  0.74402333  0.84010862     0.38300
C1284       C  0.99892397  0.57342437  0.80529374     0.38300
C1285       C  0.99150210  0.63113505  0.74417318     0.36700
C1286       C  0.99314149  0.68962365  0.90588100     0.36700
N1287       N  0.97863297  0.61769138  0.71409141    -0.38100
N1288       N  0.98883128  0.70336757  0.93815708    -0.38100
N1289       N  0.99796523  0.53932252  0.79583978    -0.37500
N1290       N  0.99796480  0.77864847  0.84658086    -0.37500
C1291       C  0.03570136  0.78896805  0.68563163    -0.04200
C1292       C  0.01168815  0.82299780  0.69677167    -0.01300
C1293       C  0.00197287  0.85334287  0.66790866     0.03700
C1294       C  0.01291746  0.84826254  0.62636829    -0.04200
C1295       C  0.03457795  0.81209381  0.61491747    -0.01300
C1296       C  0.04854617  0.78457779  0.64502595     0.03700
C1297       C  0.99778169  0.82769850  0.73851842     0.38300
C1298       C  0.04407990  0.80293478  0.57261464     0.38300
C1299       C  0.07900426  0.75403753  0.63477767     0.36700
C1300       C  0.98220489  0.89043946  0.68201264     0.36700
N1301       N  0.10418024  0.73067371  0.62647275    -0.38100
N1302       N  0.96746678  0.92036392  0.69375764    -0.38100
N1303       N  0.05171235  0.79471143  0.53912291    -0.37500
N1304       N  0.98650839  0.83214313  0.77163543    -0.37500
C1305       C  0.12803373  0.64207234  0.49246255    -0.04200
C1306       C  0.12050432  0.67510429  0.46513299    -0.01300
C1307       C  0.15064560  0.70505510  0.45848485     0.03700
C1308       C  0.18719258  0.70415748  0.48093134    -0.04200
C1309       C  0.19304862  0.67385780  0.51102875    -0.01300
C1310       C  0.16413161  0.64249896  0.51619700     0.03700
C1311       C  0.08338919  0.67713926  0.44093570     0.38300
C1312       C  0.23057860  0.67326461  0.53472637     0.38300
C1313       C  0.17269304  0.61019215  0.54518526     0.36700
C1314       C  0.14583553  0.73375282  0.42518070     0.36700
N1315       N  0.18081993  0.58461421  0.56815942    -0.38100
N1316       N  0.14165907  0.75562715  0.39779988    -0.38100
N1317       N  0.26058012  0.67270945  0.55340969    -0.37500
N1318       N  0.05418519  0.68001342  0.42123838    -0.37500
C1319       C  0.81621719  0.28743518  0.49910062    -0.04200
C1320       C  0.80980836  0.32068207  0.47209348    -0.01300
C1321       C  0.83674797  0.35396836  0.47231178     0.03700
C1322       C  0.87518032  0.35026710  0.49163573    -0.04200
C1323       C  0.88513856  0.31245164  0.51084664    -0.01300
C1324       C  0.85438768  0.28337888  0.51840611     0.03700
C1325       C  0.77380156  0.32196374  0.44605209     0.38300
C1326       C  0.92641872  0.30317510  0.52381023     0.38300
C1327       C  0.86140034  0.25235581  0.54911243     0.36700
C1328       C  0.82322845  0.39222613  0.45443709     0.36700
N1329       N  0.86824164  0.22881441  0.57455818    -0.38100
N1330       N  0.81130279  0.42273435  0.44107224    -0.38100
N1331       N  0.95958035  0.29523927  0.53294598    -0.37500
N1332       N  0.74506156  0.32282274  0.42547257    -0.37500
C1333       C  0.13766609  0.36014035  0.50024342    -0.04200
C1334       C  0.13717676  0.32937005  0.46982850    -0.01300
C1335       C  0.16309512  0.29510771  0.47292277     0.03700
C1336       C  0.18958109  0.29113514  0.50669413    -0.04200
C1337       C  0.18771726  0.32058241  0.53857136    -0.01300
C1338       C  0.16161408  0.35456644  0.53544877     0.03700
C1339       C  0.10955250  0.33243636  0.43526045     0.38300
C1340       C  0.21338950  0.31648254  0.57460001     0.38300
C1341       C  0.15746501  0.38224423  0.56974812     0.36700
C1342       C  0.16284481  0.26532062  0.44022224     0.36700
N1343       N  0.15385961  0.40356282  0.59766677    -0.38100
N1344       N  0.16047548  0.24279269  0.41309121    -0.38100
N1345       N  0.23400840  0.31338822  0.60317194    -0.37500
N1346       N  0.08738878  0.33367777  0.40775901    -0.37500
C1347       C  0.86064936  0.62459349  0.49048700    -0.04200
C1348       C  0.83933367  0.63076360  0.45380068    -0.01300
C1349       C  0.81180990  0.66340742  0.45015937     0.03700
C1350       C  0.80516099  0.69015445  0.48356128    -0.04200
C1351       C  0.82451967  0.68202258  0.52132198    -0.01300
C1352       C  0.85195681  0.64895966  0.52480906     0.03700
C1353       C  0.84460974  0.60250284  0.42017972     0.38300
C1354       C  0.81304384  0.70463283  0.55756227     0.38300
C1355       C  0.86762371  0.63691066  0.56448343     0.36700
C1356       C  0.78872773  0.66793112  0.41249717     0.36700
N1357       N  0.87940195  0.62645820  0.59614970    -0.38100
N1358       N  0.77036765  0.67117520  0.38244403    -0.38100
N1359       N  0.80373597  0.72188614  0.58692932    -0.37500
N1360       N  0.84822131  0.57971141  0.39349312    -0.37500
C1361       C  0.18890363  0.51391610  0.29356116    -0.04200
C1362       C  0.17333330  0.47467474  0.30218337    -0.01300
C1363       C  0.15019652  0.46829977  0.33772738     0.03700
C1364       C  0.14022563  0.50146903  0.36315898    -0.04200
C1365       C  0.15584006  0.54053682  0.35499110    -0.01300
C1366       C  0.18067834  0.54670434  0.32081622     0.03700
C1367       C  0.18460415  0.44005670  0.27690982     0.38300
C1368       C  0.14684994  0.57435558  0.38222380     0.38300
C1369       C  0.19986088  0.58636591  0.31539534     0.36700
C1370       C  0.14012869  0.42716014  0.35033094     0.36700
N1371       N  0.21486333  0.61812675  0.31149762    -0.38100
N1372       N  0.13290379  0.39407562  0.36030276    -0.38100
N1373       N  0.13983443  0.60134818  0.40389151    -0.37500
N1374       N  0.19372804  0.41230830  0.25699675    -0.37500
C1375       C  0.81240919  0.48735969  0.29389301    -0.04200
C1376       C  0.81728548  0.45337067  0.31999439    -0.01300
C1377       C  0.85038166  0.45218154  0.34732004     0.03700
C1378       C  0.87491840  0.48701926  0.35253402    -0.04200
C1379       C  0.87197538  0.51952101  0.32434397    -0.01300
C1380       C  0.84020609  0.52007767  0.29555134     0.03700
C1381       C  0.78883774  0.41950421  0.31823771     0.38300
C1382       C  0.90184334  0.55206257  0.32419853     0.38300
C1383       C  0.83559442  0.55451781  0.26800824     0.36700
C1384       C  0.86328481  0.41362587  0.36483593     0.36700
N1385       N  0.83183804  0.58184315  0.24591510    -0.38100
N1386       N  0.87477690  0.38258594  0.37727713    -0.38100
N1387       N  0.92551948  0.57816500  0.32308438    -0.37500
N1388       N  0.76599259  0.39258156  0.31721481    -0.37500
C1389       C  0.13126351  0.50895687  0.63866823    -0.04200
C1390       C  0.11647588  0.52357834  0.67700409    -0.01300
C1391       C  0.14373737  0.53852124  0.70680902     0.03700
C1392       C  0.18608567  0.53321759  0.70211234    -0.04200
C1393       C  0.20090943  0.51556157  0.66552606    -0.01300
C1394       C  0.17397611  0.50484118  0.63358861     0.03700
C1395       C  0.07309586  0.52615367  0.68587974     0.38300
C1396       C  0.24429742  0.50927292  0.65970099     0.38300
C1397       C  0.19097877  0.48987562  0.59550208     0.36700
C1398       C  0.12743571  0.56309775  0.73981499     0.36700
N1399       N  0.20483275  0.47842263  0.56511501    -0.38100
N1400       N  0.11222213  0.58306098  0.76466153    -0.38100
N1401       N  0.27867505  0.50421154  0.65378177    -0.37500
N1402       N  0.03871817  0.52829629  0.69349813    -0.37500
C1403       C  0.86797730  0.49517385  0.63247938    -0.04200
C1404       C  0.83355313  0.52081193  0.62888754    -0.01300
C1405       C  0.80614046  0.52468194  0.66158810     0.03700
C1406       C  0.80875692  0.49816067  0.69571983    -0.04200
C1407       C  0.84296385  0.47239111  0.69954479    -0.01300
C1408       C  0.87367604  0.47275705  0.66928671     0.03700
C1409       C  0.82500159  0.54229038  0.59113074     0.38300
C1410       C  0.84538135  0.44348668  0.73289800     0.38300
C1411       C  0.91037593  0.44894258  0.67597488     0.36700
C1412       C  0.77383983  0.55507975  0.65927260     0.36700
N1413       N  0.93978988  0.43050267  0.68250124    -0.38100
N1414       N  0.74813387  0.57927812  0.65746616    -0.38100
N1415       N  0.84731065  0.42010513  0.75929228    -0.37500
N1416       N  0.81684005  0.55861343  0.56088237    -0.37500
C1417       C  0.99885658  0.63011305  0.35288931    -0.04200
C1418       C  0.96923377  0.66174348  0.35255713    -0.01300
C1419       C  0.96778659  0.69084774  0.32039919     0.03700
C1420       C  0.99909069  0.69260942  0.29082560    -0.04200
C1421       C  0.02975314  0.66206582  0.29231807    -0.01300
C1422       C  0.02761765  0.62941948  0.32073021     0.03700
C1423       C  0.93883810  0.66372782  0.38439856     0.38300
C1424       C  0.06580476  0.66570003  0.26734676     0.38300
C1425       C  0.05483098  0.59484873  0.31588319     0.36700
C1426       C  0.93232350  0.71691087  0.31659080     0.36700
N1427       N  0.07570014  0.56684854  0.31049445    -0.38100
N1428       N  0.90287174  0.73625165  0.31411349    -0.38100
N1429       N  0.09587449  0.66813167  0.24919539    -0.37500
N1430       N  0.91465871  0.66635208  0.40984102    -0.37500
C1431       C  0.99065512  0.29761656  0.69063229    -0.04200
C1432       C  0.95663232  0.30817856  0.66603709    -0.01300
C1433       C  0.95901130  0.34094043  0.63798428     0.03700
C1434       C  0.99553099  0.36339331  0.63388919    -0.04200
C1435       C  0.02818863  0.35524010  0.66105128    -0.01300
C1436       C  0.02604840  0.32191863  0.68865233     0.03700
C1437       C  0.91940415  0.28454162  0.66904823     0.38300
C1438       C  0.06315521  0.38222580  0.66193000     0.38300
C1439       C  0.06033720  0.31215623  0.71478164     0.36700
C1440       C  0.92308954  0.35322364  0.61513681     0.36700
N1441       N  0.08786706  0.30424174  0.73550368    -0.38100
N1442       N  0.89421380  0.36366078  0.59761117    -0.38100
N1443       N  0.09057077  0.40440057  0.66357118    -0.37500
N1444       N  0.88961037  0.26579280  0.67144945    -0.37500
C1445       C  0.01271074  0.63903666  0.62435508    -0.04200
C1446       C  0.04861900  0.63891335  0.64818377    -0.01300
C1447       C  0.05341518  0.66640694  0.68113324     0.03700
C1448       C  0.02209596  0.69459427  0.69085108    -0.04200
C1449       C  0.98862945  0.69823104  0.66390921    -0.01300
C1450       C  0.98519963  0.67201978  0.62954647     0.03700
C1451       C  0.08321754  0.61539243  0.63448794     0.38300
C1452       C  0.95801175  0.72922683  0.67134421     0.38300
C1453       C  0.95736144  0.68285048  0.59704591     0.36700
C1454       C  0.09150740  0.66727458  0.70372583     0.36700
N1455       N  0.93680945  0.69376994  0.57044336    -0.38100
N1456       N  0.12211482  0.66845770  0.72137174    -0.38100
N1457       N  0.93340345  0.75392901  0.67707778    -0.37500
N1458       N  0.11158712  0.59837225  0.62244929    -0.37500
C1459       C  0.99963018  0.35413207  0.12809918    -0.04200
C1460       C  0.97282416  0.35433707  0.16186086    -0.01300
C1461       C  0.97772903  0.32584363  0.19393138     0.03700
C1462       C  0.01181088  0.29946604  0.19437555    -0.04200
C1463       C  0.03982383  0.30114299  0.16137543    -0.01300
C1464       C  0.03156914  0.32549519  0.12707248     0.03700
C1465       C  0.93783167  0.38120608  0.16192972     0.38300
C1466       C  0.07722050  0.27723029  0.16211682     0.38300
C1467       C  0.05412436  0.31864119  0.08971954     0.36700
C1468       C  0.94593281  0.32201995  0.22429219     0.36700
N1469       N  0.07079092  0.31165840  0.05944775    -0.38100
N1470       N  0.91969517  0.31966778  0.24768116    -0.38100
N1471       N  0.10708178  0.25835035  0.16256898    -0.37500
N1472       N  0.90930926  0.40191184  0.16253685    -0.37500
C1473       C  0.99901841  0.13162429  0.36573493    -0.04200
C1474       C  0.02548727  0.16556441  0.37155288    -0.01300
C1475       C  0.02756812  0.19680532  0.34199986     0.03700
C1476       C  0.00065471  0.19634478  0.30858102    -0.04200
C1477       C  0.97061139  0.16528039  0.30581784    -0.01300
C1478       C  0.97108548  0.13214747  0.33300548     0.03700
C1479       C  0.05120439  0.16865437  0.40741666     0.38300
C1480       C  0.94014110  0.16643564  0.27349439     0.38300
C1481       C  0.94238014  0.09892383  0.32713856     0.36700
C1482       C  0.05919180  0.22766553  0.34456552     0.36700
N1483       N  0.91932344  0.07274054  0.32171177    -0.38100
N1484       N  0.08462909  0.25207592  0.34659233    -0.38100
N1485       N  0.91589151  0.16731267  0.24776853    -0.37500
N1486       N  0.07128775  0.17290472  0.43616216    -0.37500
C1487       C  0.00478843  0.35718506  0.35615846    -0.04200
C1488       C  0.02939601  0.36089429  0.32077434    -0.01300
C1489       C  0.03312679  0.32807377  0.29256795     0.03700
C1490       C  0.00618735  0.29416347  0.29390130    -0.04200
C1491       C  0.97691595  0.29374447  0.32573469    -0.01300
C1492       C  0.97846801  0.32284909  0.35811903     0.03700
C1493       C  0.04894693  0.39938011  0.31123564     0.38300
C1494       C  0.94232630  0.26639695  0.32319844     0.38300
C1495       C  0.95068837  0.31846445  0.39204792     0.36700
C1496       C  0.06610327  0.32926197  0.26336122     0.36700
N1497       N  0.92826275  0.31405372  0.41882827    -0.38100
N1498       N  0.09302332  0.33123186  0.24071962    -0.38100
N1499       N  0.91363059  0.24592807  0.32120657    -0.37500
N1500       N  0.06299545  0.43045810  0.30206327    -0.37500
loop_ 
_geom_bond_atom_site_label_1 
_geom_bond_atom_site_label_2 
_geom_bond_distance 
_geom_bond_site_symmetry_2 
_ccdc_geom_bond_type 
N1            C5   1.377       .  A
N1            C2   1.374       .  A
N1         C1490   1.475       .  S
C2            C3   1.378       .  A
C2         C1476   1.482       .  S
C3            C4   1.347       .  A
C3            H6   1.083       .  S
C4            C5   1.383       .  A
C4            H7   1.083       .  S
C5         C1462   1.493       .  S
O8          Zr44   2.456       .  S
O8           C19   1.294       .  A
O9          Zr43   2.447   1_655  S
O9           C20   1.293       .  A
O10         Zr16   2.381       .  S
O10          C21   1.282       .  A
O11         Zr16   2.402   1_655  S
O11          C22   1.284       .  A
O12         Zr46   2.458       .  S
O12          C22   1.296       .  A
O13         Zr45   2.484       .  S
O13          C21   1.302       .  A
O14         Zr16   2.472       .  S
O14          C20   1.298   1_455  A
O15         Zr16   2.497       .  S
O15          C19   1.303       .  A
Zr16         O17   2.339   1_455  S
Zr16         O18   2.342       .  S
Zr16         O26   2.320   1_455  S
Zr16         O24   2.355       .  S
O17         Zr43   2.348   1_655  S
O17         Zr46   2.331       .  S
O18         Zr44   2.338       .  S
O18         Zr45   2.354       .  S
C19        C1487   1.526       .  S
C20        C1434   1.497       .  S
C21        C1333   1.477       .  S
C22        C1322   1.496       .  S
H23          O24   0.966       .  S
O24         Zr43   2.343       .  S
O24         Zr45   2.343       .  S
H25          O26   0.965       .  S
O26         Zr44   2.342   1_655  S
O26         Zr46   2.341       .  S
O27         Zr43   2.487       .  S
O27          C50   1.301       .  A
O28         Zr44   2.466       .  S
O28          C51   1.296   1_455  A
O29         Zr45   2.461       .  S
O29          C52   1.296       .  A
O30         Zr46   2.484       .  S
O30          C53   1.302       .  A
O31         Zr46   2.471       .  S
O31          C54   1.300       .  A
O32         Zr45   2.433       .  S
O32          C55   1.292       .  A
O33         Zr47   2.409   1_455  S
O33          C56   1.286       .  A
O34         Zr47   2.428       .  S
O34          C57   1.290       .  A
O35         Zr45   2.481       .  S
O35          C56   1.302       .  A
O36         Zr46   2.431       .  S
O36          C57   1.291       .  A
O37         Zr43   2.402       .  S
O37          C52   1.283       .  A
O38         Zr44   2.417       .  S
O38          C55   1.287       .  A
O39         Zr44   2.395   1_655  S
O39          C54   1.283       .  A
O40         Zr43   2.407   1_655  S
O40          C53   1.286       .  A
O41         Zr47   2.440   1_455  S
O41          C50   1.290       .  A
O42         Zr47   2.469       .  S
O42          C51   1.297       .  A
Zr43         O49   2.327       .  S
Zr43         O61   2.338   1_455  S
Zr44         O48   2.346   1_455  S
Zr44         O59   2.336       .  S
Zr45         O49   2.339       .  S
Zr45         O59   2.360       .  S
Zr46         O48   2.357       .  S
Zr46         O61   2.353       .  S
Zr47         O48   2.334       .  S
Zr47         O49   2.347   1_655  S
Zr47         O61   2.346       .  S
Zr47         O59   2.345   1_655  S
C50        C1445   1.505       .  S
C51        C1417   1.518       .  S
C52        C1389   1.506       .  S
C53        C1403   1.495       .  S
C54        C1378   1.471       .  S
C55        C1364   1.465       .  S
C56        C1305   1.496       .  S
C57        C1347   1.469       .  S
H58          O59   0.967       .  S
H60          O61   0.966       .  S
N62          C66   1.359       .  A
N62          C63   1.369       .  A
N62        C1448   1.451       .  S
C63          C64   1.390       .  A
C63        C1277   1.515       .  S
C64          C65   1.366       .  A
C64          H67   1.082       .  S
C65          C66   1.375       .  A
C65          H68   1.082       .  S
C66        C1291   1.484       .  S
N69          C73   1.359       .  A
N69          C70   1.370       .  A
N69        C1431   1.451       .  S
C70          C71   1.386       .  A
C70        C1266   1.502   1_655  S
C71          C72   1.364       .  A
C71          H74   1.082       .  S
C72          C73   1.378       .  A
C72          H75   1.082       .  S
C73        C1249   1.483       .  S
N76          C80   1.366       .  A
N76          C77   1.364   1_655  A
N76        C1420   1.468       .  S
C77          C78   1.379       .  A
C77        C1221   1.469       .  S
C78          C79   1.356       .  A
C78          H81   1.083       .  S
C79          C80   1.381   1_455  A
C79          H82   1.083       .  S
C80        C1235   1.474       .  S
O83        Zr119   2.469   1_545  S
O83          C94   1.300       .  A
O84        Zr118   2.476   1_545  S
O84          C95   1.300       .  A
O85         Zr91   2.447       .  S
O85          C96   1.291       .  A
O86         Zr91   2.462   1_455  S
O86          C97   1.295       .  A
O87        Zr121   2.468   1_545  S
O87          C97   1.296       .  A
O88        Zr120   2.495   1_545  S
O88          C96   1.301       .  A
O89         Zr91   2.389   1_455  S
O89          C95   1.282   1_455  A
O90         Zr91   2.398       .  S
O90          C94   1.284       .  A
Zr91         O92   2.331   1_655  S
Zr91         O93   2.339       .  S
Zr91        O101   2.333   1_655  S
Zr91         O99   2.347       .  S
O92        Zr118   2.357   1_445  S
O92        Zr121   2.336   1_545  S
O93        Zr119   2.340   1_545  S
O93        Zr120   2.333   1_545  S
C94        C1473   1.483       .  S
C95        C1263   1.496   1_655  S
C96        C1193   1.511       .  S
C97        C1210   1.509       .  S
H98          O99   0.967       .  S
O99        Zr118   2.351   1_545  S
O99        Zr120   2.347   1_545  S
H100        O101   0.967       .  S
O101       Zr119   2.353   1_445  S
O101       Zr121   2.331   1_545  S
O102       Zr118   2.470   1_455  S
O102        C125   1.299       .  A
O103       Zr119   2.475       .  S
O103        C126   1.300       .  A
O104       Zr120   2.387       .  S
O104        C127   1.282       .  A
O105       Zr121   2.398       .  S
O105        C128   1.284       .  A
O106       Zr121   2.399       .  S
O106        C129   1.284       .  A
O107       Zr120   2.425       .  S
O107        C130   1.289       .  A
O108       Zr122   2.459   1_655  S
O108        C131   1.295       .  A
O109       Zr122   2.491       .  S
O109        C132   1.300       .  A
O110       Zr120   2.473       .  S
O110        C131   1.298       .  A
O111       Zr121   2.443       .  S
O111        C132   1.291       .  A
O112       Zr118   2.493       .  S
O112        C127   1.303       .  A
O113       Zr119   2.476       .  S
O113        C130   1.300       .  A
O114       Zr119   2.459   1_455  S
O114        C129   1.298       .  A
O115       Zr118   2.467   1_455  S
O115        C128   1.299       .  A
O116       Zr122   2.405       .  S
O116        C125   1.284       .  A
O117       Zr122   2.393       .  S
O117        C126   1.283   1_455  A
Zr118       O124   2.343       .  S
Zr118       O136   2.351   1_655  S
Zr119       O123   2.352   1_655  S
Zr119       O134   2.348       .  S
Zr120       O124   2.350       .  S
Zr120       O134   2.341       .  S
Zr121       O123   2.344       .  S
Zr121       O136   2.343       .  S
Zr122       O123   2.339       .  S
Zr122       O124   2.342   1_455  S
Zr122       O136   2.334       .  S
Zr122       O134   2.358   1_455  S
C125       C1294   1.503       .  S
C126       C1238   1.479       .  S
C127       C1109   1.484       .  S
C128       C1126   1.478       .  S
C129       C1137   1.489       .  S
C130       C1154   1.510   1_565  S
C131       C1182   1.510       .  S
C132       C1168   1.505       .  S
H133        O134   0.965       .  S
H135        O136   0.966       .  S
N137        C141   1.366       .  A
N137        C138   1.371       .  A
N137       C1207   1.465       .  S
C138        C139   1.382       .  A
C138       C1336   1.486       .  S
C139        C140   1.353       .  A
C139        H142   1.083       .  S
C140        C141   1.379       .  A
C140        H143   1.083       .  S
C141       C1095   1.478       .  S
N144        C148   1.376       .  A
N144        C145   1.370       .  A
N144       C1196   1.463       .  S
C145        C146   1.379       .  A
C145       C1319   1.488       .  S
C146        C147   1.349       .  A
C146        H149   1.083       .  S
C147        C148   1.385       .  A
C147        H150   1.082       .  S
C148       C1081   1.503       .  S
N151        C155   1.368       .  A
N151        C152   1.369       .  A
N151       C1179   1.466       .  S
C152        C153   1.381       .  A
C152       C1067   1.485       .  S
C153        C154   1.357       .  A
C153        H156   1.083       .  S
C154        C155   1.379       .  A
C154        H157   1.083       .  S
C155       C1350   1.481       .  S
N158        C162   1.367       .  A
N158        C159   1.361       .  A
N158       C1165   1.459       .  S
C159        C160   1.380       .  A
C159       C1308   1.479       .  S
C160        C161   1.363       .  A
C160        H163   1.082       .  S
C161        C162   1.380       .  A
C161        H164   1.082       .  S
C162       C1053   1.483       .  S
N165        C169   1.371       .  A
N165        C166   1.372       .  A
N165       C1039   1.467       .  S
C166        C167   1.382       .  A
C166       C1151   1.496       .  S
C167        C168   1.362       .  A
C167        H170   1.083       .  S
C168        C169   1.380       .  A
C168        H171   1.083       .  S
C169       C1028   1.490       .  S
O172       Zr208   2.478       .  S
O172        C183   1.302       .  A
O173       Zr207   2.455       .  S
O173        C184   1.295       .  A
O174       Zr180   2.454       .  S
O174        C185   1.293       .  A
O175       Zr180   2.452       .  S
O175        C186   1.293       .  A
O176       Zr210   2.504       .  S
O176        C186   1.303       .  A
O177       Zr209   2.493       .  S
O177        C185   1.302       .  A
O178       Zr180   2.409       .  S
O178        C184   1.286       .  A
O179       Zr180   2.382   1_545  S
O179        C183   1.281       .  A
Zr180       O181   2.339       .  S
Zr180       O182   2.337   1_565  S
Zr180       O190   2.347   1_565  S
Zr180       O188   2.340       .  S
O181       Zr207   2.354       .  S
O181       Zr210   2.332       .  S
O182       Zr208   2.352       .  S
O182       Zr209   2.339   1_545  S
C183       C1098   1.476       .  S
C184       C1056   1.469       .  S
C185        C983   1.521       .  S
C186       C1011   1.520       .  S
H187        O188   0.969       .  S
O188       Zr207   2.357       .  S
O188       Zr209   2.337       .  S
H189        O190   0.963       .  S
O190       Zr208   2.345       .  S
O190       Zr210   2.341   1_545  S
O191       Zr207   2.491       .  S
O191        C214   1.304       .  A
O192       Zr208   2.464       .  S
O192        C215   1.298       .  A
O193       Zr209   2.421       .  S
O193        C216   1.289       .  A
O194       Zr210   2.407       .  S
O194        C217   1.286       .  A
O195       Zr210   2.368   1_545  S
O195        C218   1.278       .  A
O196       Zr209   2.404   1_545  S
O196        C219   1.284       .  A
O197       Zr211   2.487   1_545  S
O197        C220   1.300       .  A
O198       Zr211   2.461       .  S
O198        C221   1.296       .  A
O199       Zr209   2.468   1_545  S
O199        C220   1.296       .  A
O200       Zr210   2.474       .  S
O200        C221   1.299       .  A
O201       Zr207   2.442       .  S
O201        C216   1.295       .  A
O202       Zr208   2.469       .  S
O202        C219   1.299       .  A
O203       Zr208   2.506       .  S
O203        C218   1.307       .  A
O204       Zr207   2.454       .  S
O204        C217   1.296       .  A
O205       Zr211   2.390       .  S
O205        C214   1.281       .  A
O206       Zr211   2.411   1_545  S
O206        C215   1.287       .  A
Zr207       O213   2.349       .  S
Zr207       O225   2.334       .  S
Zr208       O212   2.338       .  S
Zr208       O223   2.354       .  S
Zr209       O213   2.351       .  S
Zr209       O223   2.346   1_565  S
Zr210       O212   2.349   1_565  S
Zr210       O225   2.341       .  S
Zr211       O212   2.340   1_565  S
Zr211       O213   2.339       .  S
Zr211       O225   2.353       .  S
Zr211       O223   2.333   1_565  S
C214       C1070   1.486       .  S
C215       C1084   1.491       .  S
C216        C941   1.483       .  S
C217        C969   1.489       .  S
C218        C958   1.480       .  S
C219        C927   1.513       .  S
C220       C1042   1.515       .  S
C221        C997   1.511       .  S
H222        O223   0.967       .  S
H224        O225   0.964       .  S
N226        C230   1.369       .  A
N226        C227   1.370       .  A
N226       C1014   1.468       .  S
C227        C228   1.381       .  A
C227        C913   1.482   1_565  S
C228        C229   1.351       .  A
C228        H231   1.083       .  S
C229        C230   1.380       .  A
C229        H232   1.083       .  S
C230       C1123   1.479       .  S
N233        C237   1.362       .  A
N233        C234   1.365       .  A
N233       C1000   1.460       .  S
C234        C235   1.377       .  A
C234       C1112   1.479   1_545  S
C235        C236   1.365       .  A
C235        H238   1.082       .  S
C236        C237   1.384       .  A
C236        H239   1.083       .  S
C237        C899   1.483       .  S
N240        C244   1.377       .  A
N240        C241   1.374       .  A
N240        C986   1.466       .  S
C241        C242   1.380       .  A
C241        C885   1.494       .  S
C242        C243   1.347       .  A
C242        H245   1.083       .  S
C243        C244   1.383       .  A
C243        H246   1.082       .  S
C244       C1140   1.501       .  S
O247       Zr283   2.456   1_554  S
O247        C258   1.295       .  A
O248       Zr282   2.452   1_554  S
O248        C259   1.296       .  A
O249       Zr255   2.460   1_545  S
O249        C260   1.296       .  A
O250       Zr255   2.488       .  S
O250        C261   1.301       .  A
O251       Zr285   2.445   1_554  S
O251        C261   1.292       .  A
O252       Zr284   2.477   1_554  S
O252        C260   1.299       .  A
O253       Zr255   2.407       .  S
O253        C259   1.285       .  A
O254       Zr255   2.436       .  S
O254        C258   1.292       .  A
Zr255       O256   2.337       .  S
Zr255       O257   2.341   1_565  S
Zr255       O265   2.333       .  S
Zr255       O263   2.350   1_565  S
O256       Zr282   2.355   1_554  S
O256       Zr285   2.339   1_554  S
O257       Zr283   2.342   1_544  S
O257       Zr284   2.332   1_554  S
C258       C1025   1.484   1_565  S
C259        C888   1.500       .  S
C260        C871   1.520       .  S
C261        C857   1.510       .  S
H262        O263   0.965       .  S
O263       Zr282   2.335   1_544  S
O263       Zr284   2.326   1_554  S
H264        O265   0.972       .  S
O265       Zr283   2.361   1_554  S
O265       Zr285   2.351   1_554  S
O266       Zr282   2.474       .  S
O266        C289   1.300       .  A
O267       Zr283   2.472       .  S
O267        C290   1.300       .  A
O268       Zr284   2.379       .  S
O268        C291   1.279   1_556  A
O269       Zr285   2.406       .  S
O269        C292   1.286       .  A
O270       Zr285   2.401       .  S
O270        C293   1.284       .  A
O271       Zr284   2.366       .  S
O271        C294   1.278       .  A
O272       Zr286   2.446   1_545  S
O272        C295   1.292       .  A
O273       Zr286   2.481       .  S
O273        C296   1.298       .  A
O274       Zr284   2.463       .  S
O274        C295   1.295       .  A
O275       Zr285   2.464       .  S
O275        C296   1.296       .  A
O276       Zr282   2.513   1_544  S
O276        C291   1.307       .  A
O277       Zr283   2.469   1_545  S
O277        C294   1.299       .  A
O278       Zr283   2.438       .  S
O278        C293   1.293       .  A
O279       Zr282   2.464       .  S
O279        C292   1.300       .  A
O280       Zr286   2.390       .  S
O280        C289   1.283       .  A
O281       Zr286   2.386       .  S
O281        C290   1.281       .  A
Zr282       O288   2.332   1_565  S
Zr282       O300   2.363       .  S
Zr283       O287   2.348       .  S
Zr283       O298   2.335   1_565  S
Zr284       O288   2.334       .  S
Zr284       O298   2.347       .  S
Zr285       O287   2.335       .  S
Zr285       O300   2.345       .  S
Zr286       O287   2.327       .  S
Zr286       O288   2.349   1_565  S
Zr286       O300   2.333       .  S
Zr286       O298   2.346   1_565  S
C289        C916   1.482   1_565  S
C290        C902   1.487       .  S
C291        C818   1.494       .  S
C292        C787   1.480       .  S
C293        C801   1.456   1_556  S
C294        C773   1.473       .  S
C295        C829   1.493       .  S
C296        C846   1.519       .  S
H297        O298   0.967       .  S
H299        O300   0.967       .  S
N301        C305   1.365       .  A
N301        C302   1.375       .  A
N301        C874   1.464       .  S
C302        C303   1.389       .  A
C302        C930   1.518       .  S
C303        C304   1.359       .  A
C303        H306   1.081       .  S
C304        C305   1.374       .  A
C304        H307   1.083       .  S
C305        C759   1.485       .  S
N308        C312   1.367       .  A
N308        C309   1.369       .  A
N308        C860   1.465       .  S
C309        C310   1.380       .  A
C309        C745   1.483       .  S
C310        C311   1.353       .  A
C310        H313   1.083       .  S
C311        C312   1.382       .  A
C311        H314   1.083       .  S
C312        C944   1.482       .  S
N315        C319   1.371       .  A
N315        C316   1.373       .  A
N315        C843   1.473       .  S
C316        C317   1.379       .  A
C316        C731   1.484       .  S
C317        C318   1.349       .  A
C317        H320   1.083       .  S
C318        C319   1.381       .  A
C318        H321   1.083       .  S
C319        C972   1.482       .  S
N322        C326   1.365       .  A
N322        C323   1.363       .  A
N322        C832   1.458       .  S
C323        C324   1.379       .  A
C323        C955   1.476       .  S
C324        C325   1.358       .  A
C324        H327   1.082       .  S
C325        C326   1.381       .  A
C325        H328   1.083       .  S
C326        C720   1.481       .  S
O329       Zr365   2.464   1_554  S
O329        C340   1.298       .  A
O330       Zr364   2.440   1_554  S
O330        C341   1.293       .  A
O331       Zr337   2.482   1_455  S
O331        C342   1.300       .  A
O332       Zr337   2.463       .  S
O332        C343   1.296       .  A
O333       Zr367   2.451   1_554  S
O333        C343   1.293       .  A
O334       Zr366   2.485   1_554  S
O334        C342   1.300       .  A
O335       Zr337   2.404       .  S
O335        C341   1.285       .  A
O336       Zr337   2.418       .  S
O336        C340   1.288       .  A
Zr337       O338   2.340       .  S
Zr337       O339   2.338   1_655  S
Zr337       O347   2.338       .  S
Zr337       O345   2.346   1_655  S
O338       Zr364   2.348   1_554  S
O338       Zr367   2.342   1_554  S
O339       Zr365   2.342   1_454  S
O339       Zr366   2.339   1_554  S
C340       C1459   1.486       .  S
C341       C1224   1.460       .  S
C342        C689   1.532       .  S
C343        C703   1.525       .  S
H344        O345   0.966       .  S
O345       Zr364   2.345   1_454  S
O345       Zr366   2.338   1_554  S
H346        O347   0.965       .  S
O347       Zr365   2.347   1_554  S
O347       Zr367   2.347   1_554  S
O348       Zr364   2.462       .  S
O348        C371   1.296       .  A
O349       Zr365   2.466       .  S
O349        C372   1.299       .  A
O350       Zr366   2.397       .  S
O350        C373   1.283       .  A
O351       Zr367   2.397   1_554  S
O351        C374   1.284       .  A
O352       Zr367   2.403       .  S
O352        C375   1.285       .  A
O353       Zr366   2.409       .  S
O353        C376   1.285       .  A
O354       Zr368   2.423   1_455  S
O354        C377   1.288       .  A
O355       Zr368   2.476       .  S
O355        C378   1.298       .  A
O356       Zr366   2.481       .  S
O356        C377   1.300       .  A
O357       Zr367   2.479       .  S
O357        C378   1.299       .  A
O358       Zr364   2.470   1_455  S
O358        C373   1.299       .  A
O359       Zr365   2.472   1_455  S
O359        C376   1.299       .  A
O360       Zr365   2.439       .  S
O360        C375   1.292       .  A
O361       Zr364   2.448   1_554  S
O361        C374   1.296       .  A
O362       Zr368   2.399       .  S
O362        C371   1.281       .  A
O363       Zr368   2.407       .  S
O363        C372   1.286       .  A
Zr364       O370   2.328   1_655  S
Zr364       O382   2.352       .  S
Zr365       O369   2.355       .  S
Zr365       O380   2.344   1_655  S
Zr366       O370   2.339       .  S
Zr366       O380   2.350       .  S
Zr367       O369   2.335       .  S
Zr367       O382   2.339       .  S
Zr368       O369   2.325       .  S
Zr368       O370   2.339   1_655  S
Zr368       O382   2.331       .  S
Zr368       O380   2.360   1_655  S
C371       C1280   1.515       .  S
C372       C1252   1.496       .  S
C373        C636   1.496       .  S
C374        C608   1.470       .  S
C375        C619   1.460       .  S
C376        C647   1.480       .  S
C377        C675   1.488       .  S
C378        C661   1.522       .  S
H379        O380   0.968       .  S
H381        O382   0.965       .  S
N383        C387   1.378       .  A
N383        C384   1.375       .  A
N383        C706   1.484       .  S
C384        C385   1.374       .  A
C384       C1375   1.466       .  S
C385        C386   1.351       .  A
C385        H388   1.083       .  S
C386        C387   1.379       .  A
C386        H389   1.083       .  S
C387        C591   1.482       .  S
N390        C394   1.376       .  A
N390        C391   1.375       .  A
N390        C692   1.485       .  S
C391        C392   1.377       .  A
C391        C577   1.473       .  S
C392        C393   1.346       .  A
C392        H395   1.083       .  S
C393        C394   1.380       .  A
C393        H396   1.083       .  S
C394       C1361   1.476       .  S
N397        C401   1.362       .  A
N397        C398   1.368       .  A
N397        C678   1.446       .  S
C398        C399   1.390       .  A
C398        C563   1.518       .  S
C399        C400   1.368       .  A
C399        H402   1.083       .  S
C400        C401   1.378       .  A
C400        H403   1.082       .  S
C401       C1392   1.494       .  S
N404        C408   1.374       .  A
N404        C405   1.374       .  A
N404        C664   1.470       .  S
C405        C406   1.382       .  A
C405       C1406   1.493       .  S
C406        C407   1.352       .  A
C406        H409   1.083       .  S
C407        C408   1.380       .  A
C407        H410   1.083       .  S
C408        C549   1.491       .  S
N411        C415   1.369       .  A
N411        C412   1.369       .  A
N411        C535   1.462       .  S
C412        C413   1.379       .  A
C412        C650   1.488       .  S
C413        C414   1.361       .  A
C413        H416   1.083       .  S
C414        C415   1.381       .  A
C414        H417   1.083       .  S
C415        C815   1.489   1_556  S
O418       Zr454   2.487       .  S
O418        C429   1.302       .  A
O419       Zr453   2.467       .  S
O419        C430   1.298       .  A
O420       Zr426   2.455       .  S
O420        C431   1.294       .  A
O421       Zr426   2.486       .  S
O421        C432   1.300       .  A
O422       Zr456   2.446       .  S
O422        C432   1.292       .  A
O423       Zr455   2.463       .  S
O423        C431   1.297       .  A
O424       Zr426   2.390       .  S
O424        C430   1.283       .  A
O425       Zr426   2.399   1_554  S
O425        C429   1.283       .  A
Zr426       O427   2.346       .  S
Zr426       O428   2.340   1_556  S
Zr426       O436   2.327   1_556  S
Zr426       O434   2.348       .  S
O427       Zr453   2.352       .  S
O427       Zr456   2.344       .  S
O428       Zr454   2.340       .  S
O428       Zr455   2.353   1_554  S
C429        C762   1.508       .  S
C430        C717   1.478       .  S
C431        C538   1.499       .  S
C432        C493   1.507       .  S
H433        O434   0.966       .  S
O434       Zr453   2.342       .  S
O434       Zr455   2.339       .  S
H435        O436   0.966       .  S
O436       Zr454   2.341       .  S
O436       Zr456   2.353   1_554  S
O437       Zr453   2.466       .  S
O437        C460   1.298       .  A
O438       Zr454   2.441       .  S
O438        C461   1.293       .  A
O439       Zr455   2.422       .  S
O439        C462   1.287       .  A
O440       Zr456   2.446       .  S
O440        C463   1.293       .  A
O441       Zr456   2.425   1_554  S
O441        C464   1.289       .  A
O442       Zr455   2.406   1_554  S
O442        C465   1.286       .  A
O443       Zr457   2.488       .  S
O443        C466   1.301       .  A
O444       Zr457   2.469       .  S
O444        C467   1.297       .  A
O445       Zr455   2.468       .  S
O445        C466   1.297       .  A
O446       Zr456   2.454       .  S
O446        C467   1.294       .  A
O447       Zr453   2.449       .  S
O447        C462   1.293       .  A
O448       Zr454   2.477       .  S
O448        C465   1.300       .  A
O449       Zr454   2.471       .  S
O449        C464   1.300       .  A
O450       Zr453   2.437       .  S
O450        C463   1.292       .  A
O451       Zr457   2.395       .  S
O451        C460   1.283       .  A
O452       Zr457   2.400   1_554  S
O452        C461   1.285       .  A
Zr453       O459   2.339       .  S
Zr453       O471   2.354       .  S
Zr454       O458   2.351       .  S
Zr454       O469   2.365       .  S
Zr455       O459   2.329       .  S
Zr455       O469   2.347   1_556  S
Zr456       O458   2.337   1_556  S
Zr456       O471   2.342       .  S
Zr457       O458   2.336   1_556  S
Zr457       O459   2.336       .  S
Zr457       O471   2.344       .  S
Zr457       O469   2.341   1_556  S
C460        C734   1.473       .  S
C461        C748   1.469       .  S
C462        C566   1.516       .  S
C463        C552   1.480       .  S
C464        C594   1.494       .  S
C465        C580   1.477       .  S
C466        C510   1.530       .  S
C467        C524   1.516   1_556  S
H468        O469   0.965       .  S
H470        O471   0.966       .  S
N472        C476   1.363       .  A
N472        C473   1.366       .  A
N472        C521   1.470       .  S
C473        C474   1.380       .  A
C473        C804   1.472       .  S
C474        C475   1.353       .  A
C474        H477   1.083       .  S
C475        C476   1.378       .  A
C475        H478   1.083       .  S
C476        C605   1.463       .  S
N479        C483   1.379       .  A
N479        C480   1.376       .  A
N479        C507   1.476       .  S
C480        C481   1.380       .  A
C480        C790   1.490       .  S
C481        C482   1.346       .  A
C481        H484   1.083       .  S
C482        C483   1.381       .  A
C482        H485   1.083       .  S
C483        C633   1.491       .  S
N486        C490   1.363       .  A
N486        C487   1.364       .  A
N486        C496   1.462       .  S
C487        C488   1.379       .  A
C487        C622   1.473       .  S
C488        C489   1.352       .  A
C488        H491   1.083       .  S
C489        C490   1.382       .  A
C489        H492   1.083       .  S
C490        C776   1.473       .  S
C493        C494   1.413   1_556  A
C493        C498   1.411       .  A
C494        C495   1.422       .  A
C494        C499   1.446       .  S
C495        C496   1.417   1_554  A
C495        C502   1.447       .  S
C496        C497   1.415       .  A
C497        C498   1.414       .  A
C497        C500   1.448       .  S
C498        C501   1.444       .  S
C499        N506   1.156       .  T
C500        N505   1.157       .  T
C501        N503   1.154       .  T
C502        N504   1.157       .  T
C507        C508   1.419   1_556  A
C507        C512   1.420       .  A
C508        C509   1.423       .  A
C508        C513   1.447       .  S
C509        C510   1.423   1_554  A
C509        C516   1.449       .  S
C510        C511   1.421       .  A
C511        C512   1.423       .  A
C511        C514   1.448       .  S
C512        C515   1.447       .  S
C513        N520   1.157       .  T
C514        N519   1.156       .  T
C515        N517   1.157       .  T
C516        N518   1.158       .  T
C521        C522   1.419   1_554  A
C521        C526   1.414       .  A
C522        C523   1.421       .  A
C522        C527   1.445       .  S
C523        C524   1.421   1_556  A
C523        C530   1.449       .  S
C524        C525   1.417       .  A
C525        C526   1.416       .  A
C525        C528   1.448       .  S
C526        C529   1.443       .  S
C527        N534   1.157       .  T
C528        N533   1.156       .  T
C529        N531   1.155       .  T
C530        N532   1.157       .  T
C535        C536   1.418       .  A
C535        C540   1.418   1_556  A
C536        C537   1.415       .  A
C536        C541   1.445       .  S
C537        C538   1.409       .  A
C537        C544   1.451       .  S
C538        C539   1.413   1_556  A
C539        C540   1.421       .  A
C539        C542   1.449       .  S
C540        C543   1.446       .  S
C541        N548   1.156       .  T
C542        N547   1.157       .  T
C543        N545   1.157       .  T
C544        N546   1.156       .  T
C549        C550   1.423       .  A
C549        C554   1.413       .  A
C550        C551   1.406       .  A
C550        C555   1.454       .  S
C551        C552   1.406       .  A
C551        C558   1.452       .  S
C552        C553   1.409       .  A
C553        C554   1.413       .  A
C553        C556   1.446       .  S
C554        C557   1.449       .  S
C555        N562   1.157       .  T
C556        N561   1.156       .  T
C557        N559   1.157       .  T
C558        N560   1.157       .  T
C563        C564   1.419       .  A
C563        C568   1.415       .  A
C564        C565   1.412       .  A
C564        C569   1.452       .  S
C565        C566   1.421       .  A
C565        C572   1.453       .  S
C566        C567   1.427       .  A
C567        C568   1.416       .  A
C567        C570   1.457       .  S
C568        C571   1.442       .  S
C569        N576   1.157       .  T
C570        N575   1.158       .  T
C571        N573   1.157       .  T
C572        N574   1.158       .  T
C577        C578   1.407       .  A
C577        C582   1.418       .  A
C578        C579   1.410       .  A
C578        C583   1.452       .  S
C579        C580   1.414       .  A
C579        C586   1.445       .  S
C580        C581   1.405       .  A
C581        C582   1.403       .  A
C581        C584   1.447       .  S
C582        C585   1.454       .  S
C583        N590   1.157       .  T
C584        N589   1.156       .  T
C585        N587   1.157       .  T
C586        N588   1.156       .  T
C591        C592   1.406       .  A
C591        C596   1.413       .  A
C592        C593   1.414       .  A
C592        C597   1.450       .  S
C593        C594   1.423       .  A
C593        C600   1.449       .  S
C594        C595   1.414       .  A
C595        C596   1.407       .  A
C595        C598   1.450       .  S
C596        C599   1.454       .  S
C597        N604   1.157       .  T
C598        N603   1.157       .  T
C599        N601   1.157       .  T
C600        N602   1.156       .  T
C605        C606   1.403       .  A
C605        C610   1.414   1_554  A
C606        C607   1.406       .  A
C606        C611   1.452       .  S
C607        C608   1.417       .  A
C607        C614   1.446       .  S
C608        C609   1.406   1_554  A
C609        C610   1.399       .  A
C609        C612   1.450       .  S
C610        C613   1.454       .  S
C611        N618   1.157       .  T
C612        N617   1.156       .  T
C613        N615   1.157       .  T
C614        N616   1.155       .  T
C619        C620   1.403       .  A
C619        C624   1.406   1_556  A
C620        C621   1.401       .  A
C620        C625   1.451       .  S
C621        C622   1.419       .  A
C621        C628   1.453       .  S
C622        C623   1.412   1_556  A
C623        C624   1.405       .  A
C623        C626   1.449       .  S
C624        C627   1.449       .  S
C625        N632   1.156       .  T
C626        N631   1.157       .  T
C627        N629   1.156       .  T
C628        N630   1.157       .  T
C633        C634   1.406       .  A
C633        C638   1.422   1_556  A
C634        C635   1.411       .  A
C634        C639   1.450       .  S
C635        C636   1.428       .  A
C635        C642   1.449       .  S
C636        C637   1.411   1_556  A
C637        C638   1.405       .  A
C637        C640   1.452       .  S
C638        C641   1.455       .  S
C639        N646   1.157       .  T
C640        N645   1.158       .  T
C641        N643   1.157       .  T
C642        N644   1.156       .  T
C647        C648   1.404       .  A
C647        C652   1.414   1_556  A
C648        C649   1.404       .  A
C648        C653   1.448       .  S
C649        C650   1.417       .  A
C649        C656   1.451       .  S
C650        C651   1.416   1_556  A
C651        C652   1.417       .  A
C651        C654   1.450       .  S
C652        C655   1.451       .  S
C653        N660   1.156       .  T
C654        N659   1.157       .  T
C655        N657   1.158       .  T
C656        N658   1.157       .  T
C661        C662   1.415       .  A
C661        C666   1.420       .  A
C662        C663   1.419       .  A
C662        C667   1.446       .  S
C663        C664   1.417       .  A
C663        C670   1.447       .  S
C664        C665   1.419       .  A
C665        C666   1.429       .  A
C665        C668   1.448       .  S
C666        C669   1.449       .  S
C667        N674   1.155       .  T
C668        N673   1.157       .  T
C669        N671   1.157       .  T
C670        N672   1.157       .  T
C675        C676   1.411       .  A
C675        C680   1.416       .  A
C676        C677   1.410       .  A
C676        C681   1.451       .  S
C677        C678   1.419       .  A
C677        C684   1.451       .  S
C678        C679   1.409       .  A
C679        C680   1.417       .  A
C679        C682   1.447       .  S
C680        C683   1.448       .  S
C681        N688   1.157       .  T
C682        N687   1.157       .  T
C683        N685   1.157       .  T
C684        N686   1.157       .  T
C689        C690   1.420       .  A
C689        C694   1.419       .  A
C690        C691   1.425       .  A
C690        C695   1.449       .  S
C691        C692   1.424       .  A
C691        C698   1.443       .  S
C692        C693   1.424       .  A
C693        C694   1.426       .  A
C693        C696   1.443       .  S
C694        C697   1.449       .  S
C695        N702   1.157       .  T
C696        N701   1.157       .  T
C697        N699   1.157       .  T
C698        N700   1.156       .  T
C703        C704   1.424       .  A
C703        C708   1.431       .  A
C704        C705   1.408       .  A
C704        C709   1.452       .  S
C705        C706   1.413       .  A
C705        C712   1.447       .  S
C706        C707   1.411       .  A
C707        C708   1.422       .  A
C707        C710   1.448       .  S
C708        C711   1.450       .  S
C709        N716   1.158       .  T
C710        N715   1.158       .  T
C711        N713   1.158       .  T
C712        N714   1.158       .  T
C717        C718   1.406       .  A
C717        C722   1.416       .  A
C718        C719   1.405       .  A
C718        C723   1.449       .  S
C719        C720   1.419       .  A
C719        C726   1.454       .  S
C720        C721   1.408       .  A
C721        C722   1.407       .  A
C721        C724   1.448       .  S
C722        C725   1.450       .  S
C723        N730   1.156       .  T
C724        N729   1.156       .  T
C725        N727   1.156       .  T
C726        N728   1.157       .  T
C731        C732   1.412       .  A
C731        C736   1.421       .  A
C732        C733   1.409       .  A
C732        C737   1.449       .  S
C733        C734   1.413       .  A
C733        C740   1.450       .  S
C734        C735   1.407       .  A
C735        C736   1.404       .  A
C735        C738   1.453       .  S
C736        C739   1.454       .  S
C737        N744   1.157       .  T
C738        N743   1.157       .  T
C739        N741   1.158       .  T
C740        N742   1.157       .  T
C745        C746   1.420       .  A
C745        C750   1.411       .  A
C746        C747   1.404       .  A
C746        C751   1.455       .  S
C747        C748   1.407       .  A
C747        C754   1.450       .  S
C748        C749   1.411       .  A
C749        C750   1.405       .  A
C749        C752   1.452       .  S
C750        C753   1.447       .  S
C751        N758   1.158       .  T
C752        N757   1.157       .  T
C753        N755   1.157       .  T
C754        N756   1.156       .  T
C759        C760   1.414       .  A
C759        C764   1.400       .  A
C760        C761   1.412       .  A
C760        C765   1.453       .  S
C761        C762   1.418       .  A
C761        C768   1.450       .  S
C762        C763   1.434       .  A
C763        C764   1.411       .  A
C763        C766   1.452       .  S
C764        C767   1.453       .  S
C765        N772   1.157       .  T
C766        N771   1.158       .  T
C767        N769   1.157       .  T
C768        N770   1.157       .  T
C773        C774   1.407   1_556  A
C773        C778   1.422       .  A
C774        C775   1.400       .  A
C774        C779   1.450       .  S
C775        C776   1.415   1_554  A
C775        C782   1.454       .  S
C776        C777   1.406       .  A
C777        C778   1.405       .  A
C777        C780   1.448       .  S
C778        C781   1.452       .  S
C779        N786   1.157       .  T
C780        N785   1.156       .  T
C781        N783   1.157       .  T
C782        N784   1.157       .  T
C787        C788   1.418   1_556  A
C787        C792   1.407       .  A
C788        C789   1.415       .  A
C788        C793   1.449       .  S
C789        C790   1.412   1_554  A
C789        C796   1.449       .  S
C790        C791   1.420       .  A
C791        C792   1.401       .  A
C791        C794   1.455       .  S
C792        C795   1.452       .  S
C793        N800   1.157       .  T
C794        N799   1.157       .  T
C795        N797   1.156       .  T
C796        N798   1.157       .  T
C801        C802   1.407   1_554  A
C801        C806   1.405       .  A
C802        C803   1.407       .  A
C802        C807   1.450       .  S
C803        C804   1.412   1_556  A
C803        C810   1.449       .  S
C804        C805   1.417       .  A
C805        C806   1.397       .  A
C805        C808   1.453       .  S
C806        C809   1.454       .  S
C807        N814   1.157       .  T
C808        N813   1.158       .  T
C809        N811   1.158       .  T
C810        N812   1.157       .  T
C815        C816   1.410   1_554  A
C815        C820   1.419       .  A
C816        C817   1.412       .  A
C816        C821   1.449       .  S
C817        C818   1.420   1_556  A
C817        C824   1.449       .  S
C818        C819   1.404       .  A
C819        C820   1.408       .  A
C819        C822   1.447       .  S
C820        C823   1.452       .  S
C821        N828   1.157       .  T
C822        N827   1.157       .  T
C823        N825   1.157       .  T
C824        N826   1.158       .  T
C829        C830   1.411       .  A
C829        C834   1.409       .  A
C830        C831   1.417       .  A
C830        C835   1.451       .  S
C831        C832   1.419       .  A
C831        C838   1.447       .  S
C832        C833   1.414       .  A
C833        C834   1.415       .  A
C833        C836   1.447       .  S
C834        C837   1.446       .  S
C835        N842   1.158       .  T
C836        N841   1.157       .  T
C837        N839   1.156       .  T
C838        N840   1.157       .  T
C843        C844   1.422       .  A
C843        C848   1.418       .  A
C844        C845   1.429       .  A
C844        C849   1.447       .  S
C845        C846   1.418       .  A
C845        C852   1.449       .  S
C846        C847   1.413       .  A
C847        C848   1.417       .  A
C847        C850   1.445       .  S
C848        C851   1.447       .  S
C849        N856   1.157       .  T
C850        N855   1.154       .  T
C851        N853   1.156       .  T
C852        N854   1.157       .  T
C857        C858   1.414       .  A
C857        C862   1.414       .  A
C858        C859   1.413       .  A
C858        C863   1.447       .  S
C859        C860   1.415       .  A
C859        C866   1.445       .  S
C860        C861   1.418       .  A
C861        C862   1.423       .  A
C861        C864   1.447       .  S
C862        C865   1.447       .  S
C863        N870   1.157       .  T
C864        N869   1.157       .  T
C865        N867   1.156       .  T
C866        N868   1.156       .  T
C871        C872   1.423       .  A
C871        C876   1.422       .  A
C872        C873   1.422       .  A
C872        C877   1.448       .  S
C873        C874   1.415       .  A
C873        C880   1.449       .  S
C874        C875   1.420       .  A
C875        C876   1.416       .  A
C875        C878   1.450       .  S
C876        C879   1.450       .  S
C877        N884   1.157       .  T
C878        N883   1.157       .  T
C879        N881   1.157       .  T
C880        N882   1.157       .  T
C885        C886   1.420   1_565  A
C885        C890   1.408       .  A
C886        C887   1.400       .  A
C886        C891   1.455       .  S
C887        C888   1.417   1_545  A
C887        C894   1.454       .  S
C888        C889   1.429       .  A
C889        C890   1.412       .  A
C889        C892   1.452       .  S
C890        C893   1.449       .  S
C891        N898   1.157       .  T
C892        N897   1.158       .  T
C893        N895   1.157       .  T
C894        N896   1.158       .  T
C899        C900   1.417   1_545  A
C899        C904   1.406       .  A
C900        C901   1.406       .  A
C900        C905   1.453       .  S
C901        C902   1.410       .  A
C901        C908   1.451       .  S
C902        C903   1.423   1_565  A
C903        C904   1.407       .  A
C903        C906   1.453       .  S
C904        C907   1.449       .  S
C905        N912   1.157       .  T
C906        N911   1.158       .  T
C907        N909   1.157       .  T
C908        N910   1.157       .  T
C913        C914   1.421       .  A
C913        C918   1.407   1_545  A
C914        C915   1.407       .  A
C914        C919   1.454       .  S
C915        C916   1.408       .  A
C915        C922   1.451       .  S
C916        C917   1.420   1_545  A
C917        C918   1.408       .  A
C917        C920   1.451       .  S
C918        C921   1.450       .  S
C919        N926   1.157       .  T
C920        N925   1.156       .  T
C921        N923   1.157       .  T
C922        N924   1.158       .  T
C927        C928   1.422       .  A
C927        C932   1.433       .  A
C928        C929   1.413       .  A
C928        C933   1.452       .  S
C929        C930   1.420       .  A
C929        C936   1.453       .  S
C930        C931   1.404       .  A
C931        C932   1.407       .  A
C931        C934   1.447       .  S
C932        C935   1.454       .  S
C933        N940   1.158       .  T
C934        N939   1.158       .  T
C935        N937   1.158       .  T
C936        N938   1.158       .  T
C941        C942   1.412       .  A
C941        C946   1.420       .  A
C942        C943   1.400       .  A
C942        C947   1.451       .  S
C943        C944   1.414       .  A
C943        C950   1.455       .  S
C944        C945   1.409       .  A
C945        C946   1.413       .  A
C945        C948   1.449       .  S
C946        C949   1.450       .  S
C947        N954   1.157       .  T
C948        N953   1.157       .  T
C949        N951   1.157       .  T
C950        N952   1.157       .  T
C955        C956   1.411       .  A
C955        C960   1.416       .  A
C956        C957   1.403       .  A
C956        C961   1.447       .  S
C957        C958   1.410       .  A
C957        C964   1.448       .  S
C958        C959   1.401       .  A
C959        C960   1.403       .  A
C959        C962   1.442       .  S
C960        C963   1.452       .  S
C961        N968   1.157       .  T
C962        N967   1.154       .  T
C963        N965   1.157       .  T
C964        N966   1.157       .  T
C969        C970   1.423       .  A
C969        C974   1.411       .  A
C970        C971   1.407       .  A
C970        C975   1.449       .  S
C971        C972   1.403       .  A
C971        C978   1.450       .  S
C972        C973   1.419       .  A
C973        C974   1.406       .  A
C973        C976   1.455       .  S
C974        C977   1.451       .  S
C975        N982   1.156       .  T
C976        N981   1.157       .  T
C977        N979   1.158       .  T
C978        N980   1.157       .  T
C983        C984   1.417   1_565  A
C983        C988   1.418       .  A
C984        C985   1.425       .  A
C984        C989   1.445       .  S
C985        C986   1.418   1_545  A
C985        C992   1.449       .  S
C986        C987   1.416       .  A
C987        C988   1.416       .  A
C987        C990   1.448       .  S
C988        C991   1.448       .  S
C989        N996   1.156       .  T
C990        N995   1.157       .  T
C991        N993   1.157       .  T
C992        N994   1.157       .  T
C997        C998   1.422       .  A
C997       C1002   1.415   1_565  A
C998        C999   1.425       .  A
C998       C1003   1.449       .  S
C999       C1000   1.414   1_565  A
C999       C1006   1.446       .  S
C1000      C1001   1.410       .  A
C1001      C1002   1.409       .  A
C1001      C1004   1.445       .  S
C1002      C1005   1.449       .  S
C1003      N1010   1.157       .  T
C1004      N1009   1.157       .  T
C1005      N1007   1.157       .  T
C1006      N1008   1.157       .  T
C1011      C1012   1.416   1_565  A
C1011      C1016   1.415       .  A
C1012      C1013   1.425       .  A
C1012      C1017   1.448       .  S
C1013      C1014   1.417   1_545  A
C1013      C1020   1.447       .  S
C1014      C1015   1.418       .  A
C1015      C1016   1.420       .  A
C1015      C1018   1.448       .  S
C1016      C1019   1.446       .  S
C1017      N1024   1.157       .  T
C1018      N1023   1.157       .  T
C1019      N1021   1.156       .  T
C1020      N1022   1.157       .  T
C1025      C1026   1.405   1_545  A
C1025      C1030   1.408       .  A
C1026      C1027   1.414       .  A
C1026      C1031   1.446       .  S
C1027      C1028   1.418   1_565  A
C1027      C1034   1.450       .  S
C1028      C1029   1.417       .  A
C1029      C1030   1.411       .  A
C1029      C1032   1.449       .  S
C1030      C1033   1.453       .  S
C1031      N1038   1.157       .  T
C1032      N1037   1.157       .  T
C1033      N1035   1.157       .  T
C1034      N1036   1.156       .  T
C1039      C1040   1.418       .  A
C1039      C1044   1.416   1_545  A
C1040      C1041   1.419       .  A
C1040      C1045   1.447       .  S
C1041      C1042   1.413       .  A
C1041      C1048   1.451       .  S
C1042      C1043   1.418   1_545  A
C1043      C1044   1.429       .  A
C1043      C1046   1.448       .  S
C1044      C1047   1.446       .  S
C1045      N1052   1.157       .  T
C1046      N1051   1.158       .  T
C1047      N1049   1.157       .  T
C1048      N1050   1.157       .  T
C1053      C1054   1.417       .  A
C1053      C1058   1.418       .  A
C1054      C1055   1.411       .  A
C1054      C1059   1.448       .  S
C1055      C1056   1.405       .  A
C1055      C1062   1.452       .  S
C1056      C1057   1.407       .  A
C1057      C1058   1.406       .  A
C1057      C1060   1.454       .  S
C1058      C1061   1.450       .  S
C1059      N1066   1.156       .  T
C1060      N1065   1.158       .  T
C1061      N1063   1.157       .  T
C1062      N1064   1.158       .  T
C1067      C1068   1.419       .  A
C1067      C1072   1.410       .  A
C1068      C1069   1.405       .  A
C1068      C1073   1.452       .  S
C1069      C1070   1.403       .  A
C1069      C1076   1.448       .  S
C1070      C1071   1.416       .  A
C1071      C1072   1.411       .  A
C1071      C1074   1.448       .  S
C1072      C1075   1.448       .  S
C1073      N1080   1.157       .  T
C1074      N1079   1.157       .  T
C1075      N1077   1.157       .  T
C1076      N1078   1.156       .  T
C1081      C1082   1.414       .  A
C1081      C1086   1.424       .  A
C1082      C1083   1.415       .  A
C1082      C1087   1.443       .  S
C1083      C1084   1.419       .  A
C1083      C1090   1.449       .  S
C1084      C1085   1.405       .  A
C1085      C1086   1.405       .  A
C1085      C1088   1.450       .  S
C1086      C1089   1.452       .  S
C1087      N1094   1.156       .  T
C1088      N1093   1.158       .  T
C1089      N1091   1.157       .  T
C1090      N1092   1.156       .  T
C1095      C1096   1.417       .  A
C1095      C1100   1.409       .  A
C1096      C1097   1.402       .  A
C1096      C1101   1.454       .  S
C1097      C1098   1.406       .  A
C1097      C1104   1.449       .  S
C1098      C1099   1.417       .  A
C1099      C1100   1.409       .  A
C1099      C1102   1.449       .  S
C1100      C1103   1.449       .  S
C1101      N1108   1.157       .  T
C1102      N1107   1.156       .  T
C1103      N1105   1.157       .  T
C1104      N1106   1.156       .  T
C1109      C1110   1.409   1_565  A
C1109      C1114   1.411       .  A
C1110      C1111   1.389       .  A
C1110      C1115   1.446       .  S
C1111      C1112   1.403   1_545  A
C1111      C1118   1.443       .  S
C1112      C1113   1.419       .  A
C1113      C1114   1.418       .  A
C1113      C1116   1.449       .  S
C1114      C1117   1.447       .  S
C1115      N1122   1.157       .  T
C1116      N1121   1.157       .  T
C1117      N1119   1.157       .  T
C1118      N1120   1.157       .  T
C1123      C1124   1.417       .  A
C1123      C1128   1.409   1_565  A
C1124      C1125   1.403       .  A
C1124      C1129   1.455       .  S
C1125      C1126   1.407       .  A
C1125      C1132   1.447       .  S
C1126      C1127   1.416   1_565  A
C1127      C1128   1.408       .  A
C1127      C1130   1.450       .  S
C1128      C1131   1.449       .  S
C1129      N1136   1.157       .  T
C1130      N1135   1.156       .  T
C1131      N1133   1.157       .  T
C1132      N1134   1.155       .  T
C1137      C1138   1.411       .  A
C1137      C1142   1.422   1_565  A
C1138      C1139   1.402       .  A
C1138      C1143   1.453       .  S
C1139      C1140   1.422       .  A
C1139      C1146   1.454       .  S
C1140      C1141   1.414   1_565  A
C1141      C1142   1.409       .  A
C1141      C1144   1.446       .  S
C1142      C1145   1.451       .  S
C1143      N1150   1.157       .  T
C1144      N1149   1.157       .  T
C1145      N1147   1.158       .  T
C1146      N1148   1.157       .  T
C1151      C1152   1.405       .  A
C1151      C1156   1.420   1_545  A
C1152      C1153   1.415       .  A
C1152      C1157   1.447       .  S
C1153      C1154   1.427       .  A
C1153      C1160   1.450       .  S
C1154      C1155   1.417   1_545  A
C1155      C1156   1.415       .  A
C1155      C1158   1.451       .  S
C1156      C1159   1.452       .  S
C1157      N1164   1.155       .  T
C1158      N1163   1.158       .  T
C1159      N1161   1.157       .  T
C1160      N1162   1.157       .  T
C1165      C1166   1.418       .  A
C1165      C1170   1.412       .  A
C1166      C1167   1.424       .  A
C1166      C1171   1.446       .  S
C1167      C1168   1.413       .  A
C1167      C1174   1.446       .  S
C1168      C1169   1.409       .  A
C1169      C1170   1.412       .  A
C1169      C1172   1.441       .  S
C1170      C1173   1.447       .  S
C1171      N1178   1.157       .  T
C1172      N1177   1.152       .  T
C1173      N1175   1.156       .  T
C1174      N1176   1.156       .  T
C1179      C1180   1.420       .  A
C1179      C1184   1.415       .  A
C1180      C1181   1.419       .  A
C1180      C1185   1.446       .  S
C1181      C1182   1.414       .  A
C1181      C1188   1.447       .  S
C1182      C1183   1.414       .  A
C1183      C1184   1.418       .  A
C1183      C1186   1.444       .  S
C1184      C1187   1.446       .  S
C1185      N1192   1.157       .  T
C1186      N1191   1.155       .  T
C1187      N1189   1.157       .  T
C1188      N1190   1.156       .  T
C1193      C1194   1.416       .  A
C1193      C1198   1.414       .  A
C1194      C1195   1.422       .  A
C1194      C1199   1.448       .  S
C1195      C1196   1.416       .  A
C1195      C1202   1.449       .  S
C1196      C1197   1.415       .  A
C1197      C1198   1.422       .  A
C1197      C1200   1.448       .  S
C1198      C1201   1.449       .  S
C1199      N1206   1.156       .  T
C1200      N1205   1.157       .  T
C1201      N1203   1.157       .  T
C1202      N1204   1.157       .  T
C1207      C1208   1.416       .  A
C1207      C1212   1.418       .  A
C1208      C1209   1.419       .  A
C1208      C1213   1.446       .  S
C1209      C1210   1.414       .  A
C1209      C1216   1.449       .  S
C1210      C1211   1.415       .  A
C1211      C1212   1.422       .  A
C1211      C1214   1.449       .  S
C1212      C1215   1.448       .  S
C1213      N1220   1.157       .  T
C1214      N1219   1.157       .  T
C1215      N1217   1.157       .  T
C1216      N1218   1.156       .  T
C1221      C1222   1.411   1_455  A
C1221      C1226   1.415       .  A
C1222      C1223   1.407       .  A
C1222      C1227   1.450       .  S
C1223      C1224   1.409       .  A
C1223      C1230   1.450       .  S
C1224      C1225   1.404   1_655  A
C1225      C1226   1.397       .  A
C1225      C1228   1.452       .  S
C1226      C1229   1.453       .  S
C1227      N1234   1.157       .  T
C1228      N1233   1.158       .  T
C1229      N1231   1.157       .  T
C1230      N1232   1.157       .  T
C1235      C1236   1.406   1_655  A
C1235      C1240   1.415       .  A
C1236      C1237   1.408       .  A
C1236      C1241   1.450       .  S
C1237      C1238   1.417   1_455  A
C1237      C1244   1.447       .  S
C1238      C1239   1.407       .  A
C1239      C1240   1.403       .  A
C1239      C1242   1.450       .  S
C1240      C1243   1.453       .  S
C1241      N1248   1.157       .  T
C1242      N1247   1.157       .  T
C1243      N1245   1.157       .  T
C1244      N1246   1.156       .  T
C1249      C1250   1.412   1_655  A
C1249      C1254   1.405       .  A
C1250      C1251   1.407       .  A
C1250      C1255   1.452       .  S
C1251      C1252   1.415   1_455  A
C1251      C1258   1.450       .  S
C1252      C1253   1.426       .  A
C1253      C1254   1.411       .  A
C1253      C1256   1.452       .  S
C1254      C1257   1.449       .  S
C1255      N1262   1.157       .  T
C1256      N1261   1.157       .  T
C1257      N1259   1.157       .  T
C1258      N1260   1.157       .  T
C1263      C1264   1.414       .  A
C1263      C1268   1.425   1_455  A
C1264      C1265   1.415       .  A
C1264      C1269   1.451       .  S
C1265      C1266   1.423       .  A
C1265      C1272   1.451       .  S
C1266      C1267   1.400   1_455  A
C1267      C1268   1.401       .  A
C1267      C1270   1.441   1_655  S
C1268      C1271   1.452       .  S
C1269      N1276   1.158       .  T
C1270      N1275   1.157       .  T
C1271      N1273   1.157       .  T
C1272      N1274   1.157       .  T
C1277      C1278   1.421       .  A
C1277      C1282   1.408       .  A
C1278      C1279   1.414   1_455  A
C1278      C1283   1.453       .  S
C1279      C1280   1.420       .  A
C1279      C1286   1.452       .  S
C1280      C1281   1.434   1_655  A
C1281      C1282   1.410       .  A
C1281      C1284   1.457   1_455  S
C1282      C1285   1.444   1_455  S
C1283      N1290   1.157   1_455  T
C1284      N1289   1.158       .  T
C1285      N1287   1.157       .  T
C1286      N1288   1.158       .  T
C1291      C1292   1.411       .  A
C1291      C1296   1.404       .  A
C1292      C1293   1.407       .  A
C1292      C1297   1.451   1_455  S
C1293      C1294   1.418       .  A
C1293      C1300   1.451   1_455  S
C1294      C1295   1.430       .  A
C1295      C1296   1.411       .  A
C1295      C1298   1.453       .  S
C1296      C1299   1.452       .  S
C1297      N1304   1.157       .  T
C1298      N1303   1.158       .  T
C1299      N1301   1.158       .  T
C1300      N1302   1.157       .  T
C1305      C1306   1.425       .  A
C1305      C1310   1.414       .  A
C1306      C1307   1.410       .  A
C1306      C1311   1.452       .  S
C1307      C1308   1.404       .  A
C1307      C1314   1.448       .  S
C1308      C1309   1.412       .  A
C1309      C1310   1.409       .  A
C1309      C1312   1.453       .  S
C1310      C1313   1.448       .  S
C1311      N1318   1.157       .  T
C1312      N1317   1.157       .  T
C1313      N1315   1.156       .  T
C1314      N1316   1.156       .  T
C1319      C1320   1.418       .  A
C1319      C1324   1.407       .  A
C1320      C1321   1.403       .  A
C1320      C1325   1.455       .  S
C1321      C1322   1.414       .  A
C1321      C1328   1.451       .  S
C1322      C1323   1.426       .  A
C1323      C1324   1.410       .  A
C1323      C1326   1.450       .  S
C1324      C1327   1.448       .  S
C1325      N1332   1.157       .  T
C1326      N1331   1.156       .  T
C1327      N1329   1.157       .  T
C1328      N1330   1.157       .  T
C1333      C1334   1.416       .  A
C1333      C1338   1.405       .  A
C1334      C1335   1.410       .  A
C1334      C1339   1.451       .  S
C1335      C1336   1.410       .  A
C1335      C1342   1.448       .  S
C1336      C1337   1.422       .  A
C1337      C1338   1.406       .  A
C1337      C1340   1.454       .  S
C1338      C1341   1.449       .  S
C1339      N1346   1.157       .  T
C1340      N1345   1.157       .  T
C1341      N1343   1.156       .  T
C1342      N1344   1.157       .  T
C1347      C1348   1.403       .  A
C1347      C1352   1.408       .  A
C1348      C1349   1.403       .  A
C1348      C1353   1.448       .  S
C1349      C1350   1.418       .  A
C1349      C1356   1.453       .  S
C1350      C1351   1.414       .  A
C1351      C1352   1.411       .  A
C1351      C1354   1.449       .  S
C1352      C1355   1.451       .  S
C1353      N1360   1.155       .  T
C1354      N1359   1.157       .  T
C1355      N1357   1.158       .  T
C1356      N1358   1.157       .  T
C1361      C1362   1.411       .  A
C1361      C1366   1.421       .  A
C1362      C1363   1.408       .  A
C1362      C1367   1.451       .  S
C1363      C1364   1.406       .  A
C1363      C1370   1.447       .  S
C1364      C1365   1.404       .  A
C1365      C1366   1.402       .  A
C1365      C1368   1.451       .  S
C1366      C1369   1.454       .  S
C1367      N1374   1.157       .  T
C1368      N1373   1.156       .  T
C1369      N1371   1.157       .  T
C1370      N1372   1.156       .  T
C1375      C1376   1.412       .  A
C1375      C1380   1.408       .  A
C1376      C1377   1.405       .  A
C1376      C1381   1.450       .  S
C1377      C1378   1.406       .  A
C1377      C1384   1.449       .  S
C1378      C1379   1.412       .  A
C1379      C1380   1.403       .  A
C1379      C1382   1.447       .  S
C1380      C1383   1.452       .  S
C1381      N1388   1.157       .  T
C1382      N1387   1.155       .  T
C1383      N1385   1.157       .  T
C1384      N1386   1.157       .  T
C1389      C1390   1.430       .  A
C1389      C1394   1.418       .  A
C1390      C1391   1.409       .  A
C1390      C1395   1.456       .  S
C1391      C1392   1.409       .  A
C1391      C1398   1.450       .  S
C1392      C1393   1.417       .  A
C1393      C1394   1.411       .  A
C1393      C1396   1.451       .  S
C1394      C1397   1.453       .  S
C1395      N1402   1.158       .  T
C1396      N1401   1.157       .  T
C1397      N1399   1.158       .  T
C1398      N1400   1.157       .  T
C1403      C1404   1.410       .  A
C1403      C1408   1.424       .  A
C1404      C1405   1.407       .  A
C1404      C1409   1.450       .  S
C1405      C1406   1.419       .  A
C1405      C1412   1.454       .  S
C1406      C1407   1.408       .  A
C1407      C1408   1.416       .  A
C1407      C1410   1.448       .  S
C1408      C1411   1.449       .  S
C1409      N1416   1.157       .  T
C1410      N1415   1.157       .  T
C1411      N1413   1.157       .  T
C1412      N1414   1.157       .  T
C1417      C1418   1.419       .  A
C1417      C1422   1.417   1_655  A
C1418      C1419   1.422       .  A
C1418      C1423   1.447       .  S
C1419      C1420   1.416       .  A
C1419      C1426   1.447       .  S
C1420      C1421   1.418   1_655  A
C1421      C1422   1.420       .  A
C1421      C1424   1.445       .  S
C1422      C1425   1.449       .  S
C1423      N1430   1.156       .  T
C1424      N1429   1.156       .  T
C1425      N1427   1.157       .  T
C1426      N1428   1.157       .  T
C1431      C1432   1.417       .  A
C1431      C1436   1.409   1_655  A
C1432      C1433   1.415       .  A
C1432      C1437   1.450       .  S
C1433      C1434   1.413       .  A
C1433      C1440   1.450       .  S
C1434      C1435   1.416   1_655  A
C1435      C1436   1.419       .  A
C1435      C1438   1.448       .  S
C1436      C1439   1.447       .  S
C1437      N1444   1.157       .  T
C1438      N1443   1.157       .  T
C1439      N1441   1.157       .  T
C1440      N1442   1.157       .  T
C1445      C1446   1.411       .  A
C1445      C1450   1.416   1_455  A
C1446      C1447   1.413       .  A
C1446      C1451   1.443       .  S
C1447      C1448   1.417       .  A
C1447      C1454   1.450       .  S
C1448      C1449   1.411   1_455  A
C1449      C1450   1.419       .  A
C1449      C1452   1.447       .  S
C1450      C1453   1.445       .  S
C1451      N1458   1.154       .  T
C1452      N1457   1.157       .  T
C1453      N1455   1.157       .  T
C1454      N1456   1.157       .  T
C1459      C1460   1.416       .  A
C1459      C1464   1.405   1_655  A
C1460      C1461   1.414       .  A
C1460      C1465   1.445       .  S
C1461      C1462   1.412   1_655  A
C1461      C1468   1.449       .  S
C1462      C1463   1.423       .  A
C1463      C1464   1.404       .  A
C1463      C1466   1.454       .  S
C1464      C1467   1.450       .  S
C1465      N1472   1.155       .  T
C1466      N1471   1.157       .  T
C1467      N1469   1.157       .  T
C1468      N1470   1.157       .  T
C1473      C1474   1.422   1_655  A
C1473      C1478   1.408       .  A
C1474      C1475   1.411       .  A
C1474      C1479   1.448       .  S
C1475      C1476   1.404       .  A
C1475      C1482   1.450       .  S
C1476      C1477   1.419   1_455  A
C1477      C1478   1.404       .  A
C1477      C1480   1.454       .  S
C1478      C1481   1.451       .  S
C1479      N1486   1.156       .  T
C1480      N1485   1.157       .  T
C1481      N1483   1.156       .  T
C1482      N1484   1.157       .  T
C1487      C1488   1.420       .  A
C1487      C1492   1.419   1_455  A
C1488      C1489   1.421       .  A
C1488      C1493   1.448       .  S
C1489      C1490   1.420       .  A
C1489      C1496   1.447       .  S
C1490      C1491   1.420   1_455  A
C1491      C1492   1.426       .  A
C1491      C1494   1.448       .  S
C1492      C1495   1.447       .  S
C1493      N1500   1.157       .  T
C1494      N1499   1.157       .  T
C1495      N1497   1.156       .  T
C1496      N1498   1.157       .  T
