geometry optimzed in LAMMPS
_audit_creation_date              2020-11-30 
_audit_creation_method            'lammps2cif' 
_symmetry_space_group_name_H-M    'P1' 
_symmetry_Int_Tables_number       1 
_symmetry_cell_setting            triclinic 
loop_ 
_symmetry_equiv_pos_as_xyz 
  x,y,z 
_cell_length_a                    27.41563261 
_cell_length_b                    27.5039181159909 
_cell_length_c                    27.466307394676072 
_cell_angle_alpha                 89.15619920218958 
_cell_angle_beta                  89.93747333549886 
_cell_angle_gamma                 89.88708922039922 
loop_ 
_atom_site_label 
_atom_site_type_symbol 
_atom_site_fract_x 
_atom_site_fract_y 
_atom_site_fract_z 
_atom_site_charge 
O1          O  0.17805743  0.45687161  0.06761026    -0.80700
O2          O  0.17576996  0.54456366  0.93767939    -0.80700
O3          O  0.22676561  0.56261585  0.09923128    -0.80700
O4          O  0.24045302  0.44397056  0.91171706    -0.80700
O5          O  0.16691308  0.55635127  0.04551893    -0.80800
O6          O  0.17788377  0.44334824  0.96258626    -0.80700
O7          O  0.24286265  0.53635605  0.89507493    -0.80700
O8          O  0.23984617  0.47139796  0.11530074    -0.80700
C9          C  0.19542501  0.46007758  0.11044352     1.09000
C10         C  0.19729081  0.54364272  0.89626635     1.08900
C11         C  0.18161392  0.56554967  0.08873373     1.09000
C12         C  0.19543105  0.43577423  0.92030354     1.08900
O13         O  0.27139927  0.39508408  0.97548690    -0.80700
O14         O  0.25324556  0.61589205  0.03688313    -0.80800
O15         O  0.33147580  0.46925857  0.06370861    -0.80700
O16         O  0.32887852  0.55142745  0.95214844    -0.80700
O17         O  0.26483457  0.60061600  0.94588853    -0.80700
O18         O  0.27517928  0.41160889  0.06705695    -0.80700
O19         O  0.33197156  0.44612262  0.96596106    -0.80700
O20         O  0.31996773  0.57361616  0.05043297    -0.80700
Co21       Co  0.22524053  0.43369337  0.01721909     1.51500
Co22       Co  0.21567768  0.57202539  0.99258498     1.51700
Co23       Co  0.27953714  0.51823787  0.07518630     1.51600
Co24       Co  0.28546274  0.49534590  0.93819501     1.51500
O25         O  0.25118075  0.50492482  0.00569508    -1.42600
C26         C  0.31627104  0.40256291  0.96657298     1.08900
C27         C  0.29800480  0.61446002  0.04860894     1.09000
C28         C  0.31904374  0.42557515  0.07347413     1.09000
C29         C  0.31053448  0.59301488  0.94185107     1.08900
O30         O  0.76352128  0.44104391  0.10025835    -0.80700
O31         O  0.76515499  0.54885941  0.89769656    -0.80700
O32         O  0.83353405  0.45033556  0.94887255    -0.80700
O33         O  0.82640924  0.54415356  0.05637638    -0.80700
O34         O  0.77399193  0.45528180  0.89506232    -0.80800
O35         O  0.76254332  0.53421906  0.10414716    -0.80700
O36         O  0.82745696  0.55167117  0.94800817    -0.80700
O37         O  0.82769495  0.44353592  0.05268265    -0.80700
C38         C  0.80922395  0.43554063  0.09438640     1.09000
C39         C  0.81009945  0.55594518  0.90481854     1.08900
C40         C  0.81888145  0.44715637  0.90520516     1.09000
C41         C  0.80776887  0.54222651  0.09919297     1.08900
O42         O  0.67285696  0.54337923  0.05003136    -0.80700
O43         O  0.67908514  0.44123247  0.94353330    -0.80800
O44         O  0.73687006  0.38936760  0.03951917    -0.80700
O45         O  0.73461503  0.60004088  0.95730882    -0.80700
O46         O  0.67381386  0.54870160  0.94865371    -0.80700
O47         O  0.67401722  0.43893021  0.04341492    -0.80700
O48         O  0.73428049  0.59486870  0.05100292    -0.80700
O49         O  0.74371552  0.39459520  0.94654147    -0.80700
Co50       Co  0.71864472  0.48979841  0.06756913     1.51500
Co51       Co  0.72285128  0.49791121  0.92799513     1.51700
Co52       Co  0.78500080  0.42636653  0.99731169     1.51600
Co53       Co  0.78092422  0.56575966  0.00280784     1.51500
O54         O  0.75188408  0.49522966  0.99881808    -1.42600
C55         C  0.68948275  0.58557009  0.05853534     1.08900
C56         C  0.69831605  0.39912071  0.93955217     1.09000
C57         C  0.69112933  0.39595137  0.04476736     1.09000
C58         C  0.68946601  0.59263123  0.95053652     1.08900
O59         O  0.43327231  0.05031998  0.29943508    -0.80700
O60         O  0.55397100  0.93567890  0.31409614    -0.80700
O61         O  0.40308098  0.96533808  0.26442462    -0.80700
O62         O  0.60442411  0.03684994  0.25602179    -0.80700
O63         O  0.45192204  0.94361773  0.32107305    -0.80800
O64         O  0.54732022  0.06256126  0.30916142    -0.80700
O65         O  0.60350203  0.94091236  0.25151784    -0.80700
O66         O  0.38025183  0.04985296  0.23744381    -0.80700
C67         C  0.38894633  0.05787600  0.28268813     1.09000
C68         C  0.59719181  0.93813095  0.29708652     1.08900
C69         C  0.40872928  0.94819541  0.30642669     1.09000
C70         C  0.59250730  0.05619576  0.29694979     1.08900
O71         O  0.54937902  0.08951796  0.21591321    -0.80700
O72         O  0.44652555  0.90646052  0.21811803    -0.80800
O73         O  0.45842586  0.07985459  0.18904261    -0.77700
O74         O  0.55238918  0.93935068  0.16065621    -0.80700
O75         O  0.54072573  0.88751871  0.22152694    -0.80700
O76         O  0.47419221  0.12614365  0.25339877    -0.80700
O77         O  0.55597177  0.04065726  0.15628257    -0.80700
O78         O  0.42682307  0.97303029  0.17216145    -0.80700
Co79       Co  0.49563651  0.06050532  0.25684933     1.51500
Co80       Co  0.49847354  0.92319242  0.26856894     1.51700
Co81       Co  0.44029683  0.01710661  0.22787040     1.51600
Co82       Co  0.57431443  0.99031828  0.20657243     1.51500
O83         O  0.50794143  0.99067903  0.23940642    -1.42600
C84         C  0.55824926  0.08323450  0.17178196     1.08900
C85         C  0.42736697  0.92650069  0.17975050     1.09000
C86         C  0.46051791  0.12293484  0.20874043     1.09000
C87         C  0.54925712  0.89589036  0.17672092     1.08900
O88         O  0.39567074  0.04526184  0.73579631    -0.80700
O89         O  0.60629572  0.95863910  0.73690091    -0.80700
O90         O  0.55230396  0.05445333  0.67747072    -0.80700
O91         O  0.44876209  0.95072138  0.67208500    -0.80700
O92         O  0.60079034  0.05133772  0.74093223    -0.80800
O93         O  0.39802410  0.95185332  0.73463214    -0.80700
O94         O  0.55828429  0.95388600  0.67266502    -0.80700
O95         O  0.44655443  0.05245791  0.67419970    -0.80700
C96         C  0.40302822  0.05201682  0.69060224     1.09000
C97         C  0.60100696  0.95046113  0.69165078     1.08900
C98         C  0.59509462  0.05655034  0.69538101     1.09000
C99         C  0.40626859  0.94302698  0.68991894     1.08900
O100        O  0.45062004  0.94629168  0.82654506    -0.80700
O101        O  0.54645974  0.05100708  0.83116088    -0.80800
O102        O  0.44871531  0.10356574  0.76665239    -0.80700
O103        O  0.55089923  0.89911035  0.76178540    -0.80700
O104        O  0.55144856  0.94348693  0.82711251    -0.80700
O105        O  0.44587524  0.05158787  0.82805541    -0.80700
O106        O  0.45784845  0.89817886  0.76355341    -0.80700
O107        O  0.54205665  0.10387261  0.77015751    -0.80700
Co108      Co  0.42950118  0.99883119  0.78111774     1.51500
Co109      Co  0.56927890  0.00094973  0.78389779     1.51700
Co110      Co  0.49778618  0.07201524  0.72191669     1.51600
Co111      Co  0.50344596  0.93290637  0.71773212     1.51500
O112        O  0.50000773  0.00116208  0.75103952    -1.42600
C113        C  0.44952461  0.90390866  0.80877871     1.08900
C114        C  0.54769000  0.09501306  0.81549544     1.09000
C115        C  0.44079788  0.09497229  0.81167802     1.09000
C116        C  0.55545633  0.90173328  0.80740836     1.08900
O117        O  0.05770764  0.31941679  0.45850594    -0.80700
O118        O  0.95358400  0.33012903  0.54936895    -0.80700
O119        O  0.95889725  0.25788919  0.40119437    -0.80700
O120        O  0.04240562  0.25877080  0.61626591    -0.80700
O121        O  0.95719939  0.32268908  0.44613047    -0.80800
O122        O  0.05487456  0.31970368  0.56524784    -0.80700
O123        O  0.94975643  0.27313213  0.60661161    -0.80700
O124        O  0.05225788  0.25742422  0.40862222    -0.80700
C125        C  0.06125195  0.30231669  0.41570295     1.09000
C126        C  0.94613806  0.31787929  0.59343658     1.08900
C127        C  0.95420370  0.30362153  0.40446823     1.09000
C128        C  0.05580653  0.30221333  0.60860049     1.08900
O129        O  0.09852098  0.22458367  0.56135150    -0.80700
O130        O  0.89801001  0.23424454  0.45681929    -0.80800
O131        O  0.05262885  0.16584796  0.46386942    -0.80700
O132        O  0.93957007  0.17763040  0.55803466    -0.80700
O133        O  0.89398673  0.24252252  0.55009029    -0.80700
O134        O  0.10501868  0.22594258  0.46799002    -0.80700
O135        O  0.04252664  0.16728924  0.56641122    -0.80700
O136        O  0.94541193  0.16950482  0.45698820    -0.80700
Co137      Co  0.07198130  0.27269090  0.51269531     1.51500
Co138      Co  0.93247285  0.28165452  0.50110052     1.51700
Co139      Co  0.00219342  0.21305592  0.43991506     1.51600
Co140      Co  0.99352705  0.21919974  0.58007093     1.51500
O141        O  0.00019655  0.24650109  0.50849479    -1.42600
C142        C  0.08664497  0.18081227  0.57099434     1.08900
C143        C  0.90309047  0.18851113  0.45100204     1.09000
C144        C  0.09647870  0.18116920  0.46171847     1.09000
C145        C  0.89782400  0.19714895  0.55840129     1.08900
O146        O  0.04355839  0.73234000  0.39347693    -0.80700
O147        O  0.96791250  0.73891071  0.60228002    -0.80700
O148        O  0.11109218  0.68744193  0.52894923    -0.80700
O149        O  0.94089845  0.67096000  0.44932750    -0.80700
O150        O  0.05272711  0.71492164  0.57849296    -0.80800
O151        O  0.94620577  0.73085136  0.39433368    -0.80700
O152        O  0.95188889  0.67598444  0.55553328    -0.80700
O153        O  0.04765749  0.67178320  0.44646239    -0.80700
C154        C  0.04804755  0.68727691  0.40190539     1.09000
C155        C  0.95375213  0.69515115  0.59775240     1.08900
C156        C  0.09089741  0.68807472  0.57102086     1.09000
C157        C  0.93681822  0.68647302  0.40550074     1.08900
O158        O  0.94288427  0.82385661  0.44101125    -0.80700
O159        O  0.04398866  0.81148975  0.60140300    -0.80800
O160        O  0.10119268  0.76125679  0.45314083    -0.80700
O161        O  0.90233766  0.76690363  0.54929114    -0.80700
O162        O  0.95536240  0.82673263  0.54620662    -0.80700
O163        O  0.05046074  0.82297630  0.43997131    -0.80700
O164        O  0.89145058  0.76280753  0.45383501    -0.80700
O165        O  0.08565062  0.78327964  0.53831630    -0.80700
Co166      Co  0.99531382  0.77783765  0.42186271     1.51500
Co167      Co  0.00876148  0.77496327  0.55395517     1.51700
Co168      Co  0.05876927  0.72300024  0.49860797     1.51600
Co169      Co  0.92630568  0.71879596  0.50117904     1.51500
O170        O  0.99248901  0.74861669  0.48957575    -1.42600
C171        C  0.89952827  0.80717014  0.44210511     1.08900
C172        C  0.08304062  0.81129131  0.57578611     1.09000
C173        C  0.09390245  0.80525757  0.43956782     1.09000
C174        C  0.91095913  0.81205912  0.55136884     1.08900
C175        C  0.72855611  0.89965235  0.66450680    -0.11900
C176        C  0.73873170  0.91821440  0.61793151     0.14600
C177        C  0.70221696  0.94639171  0.59410308     0.01500
C178        C  0.65653424  0.95437014  0.61703257    -0.16300
C179        C  0.64649254  0.93592738  0.66416689    -0.11100
C180        C  0.68365537  0.90794058  0.68776877     0.08200
C181        C  0.78346603  0.89870733  0.59302142     0.09300
S182        S  0.71208939  0.97397483  0.53495160    -0.25400
H183        H  0.62941817  0.97666792  0.59866382     0.19500
S184        S  0.67432165  0.88038364  0.74733147    -0.31100
H185        H  0.75584475  0.87703863  0.68218850     0.09800
C186        C  0.83121664  0.91644218  0.60090261     0.03100
C187        C  0.87246867  0.88965475  0.58462692    -0.13400
C188        C  0.86718520  0.84438059  0.56171635    -0.09100
C189        C  0.81834786  0.82801165  0.55259997     0.06500
C190        C  0.77808997  0.85556355  0.56769545    -0.14200
S191        S  0.83939085  0.97245372  0.63312951    -0.31100
H192        H  0.90884642  0.90283514  0.59197123     0.10700
S193        S  0.80437971  0.77041174  0.52456722    -0.28200
H194        H  0.74153907  0.84166060  0.56261019     0.08000
H195        H  0.71935832  0.85611663  0.75135417     0.26400
H196        H  0.89031549  0.97502388  0.62736989     0.21200
H197        H  0.75515275  0.77986482  0.51344241     0.26500
H198        H  0.76330968  0.97226964  0.53583884     0.15400
C199        C  0.29083095  0.87195600  0.66465117    -0.11900
C200        C  0.27145109  0.89668173  0.62423038     0.14600
C201        C  0.30064122  0.93257795  0.60054755     0.01500
C202        C  0.34753309  0.94343547  0.61888985    -0.16300
C203        C  0.36503532  0.92118569  0.66192030    -0.11100
C204        C  0.33668937  0.88359852  0.68362756     0.08200
C205        C  0.22141983  0.88191557  0.60809851     0.09300
S206        S  0.27931700  0.96807606  0.54898946    -0.25400
H207        H  0.36857158  0.97231349  0.60183401     0.19500
S208        S  0.35868106  0.84932940  0.73571958    -0.31100
H209        H  0.26937028  0.84344730  0.68178390     0.09800
C210        C  0.21424230  0.85604296  0.56493099     0.03100
C211        C  0.16825569  0.83622432  0.55495864    -0.13400
C212        C  0.12837357  0.83994966  0.58752515    -0.09100
C213        C  0.13540963  0.86681184  0.63055934     0.06500
C214        C  0.18162897  0.88736856  0.64016899    -0.14200
S215        S  0.26471054  0.84410000  0.52439769    -0.31100
H216        H  0.16432663  0.81564731  0.52203343     0.10700
S217        S  0.08714598  0.87340709  0.67476926    -0.28200
H218        H  0.18752826  0.90630316  0.67389936     0.08000
H219        H  0.31790470  0.81896385  0.74221319     0.26400
H220        H  0.23861370  0.81771956  0.48957823     0.21200
H221        H  0.11290931  0.90271759  0.70742911     0.26500
H222        H  0.22921177  0.96167908  0.55758401     0.15400
C223        C  0.72714807  0.07175308  0.65497126    -0.11900
C224        C  0.72113779  0.09624434  0.61062869     0.14600
C225        C  0.67401554  0.10201260  0.59083357     0.01500
C226        C  0.63340229  0.08695741  0.61815914    -0.16300
C227        C  0.63900319  0.06607969  0.66487957    -0.11100
C228        C  0.68707289  0.05663249  0.68252429     0.08200
C229        C  0.76401957  0.12257617  0.59163152     0.09300
S230        S  0.66352875  0.13059643  0.53229918    -0.25400
H231        H  0.59721833  0.09337549  0.60357925     0.19500
S232        S  0.69960462  0.02714933  0.74063932    -0.31100
H233        H  0.76362470  0.06749480  0.66958144     0.09800
C234        C  0.76974154  0.17228032  0.60142919     0.03100
C235        C  0.81359560  0.19517402  0.58955640    -0.13400
C236        C  0.85301473  0.16920449  0.56989547    -0.09100
C237        C  0.84765985  0.11884450  0.56122221     0.06500
C238        C  0.80288450  0.09626985  0.57174659    -0.14200
S239        S  0.72244086  0.20602759  0.63219048    -0.31100
H240        H  0.81760033  0.23349653  0.59702219     0.10700
S241        S  0.89707982  0.08258303  0.53762296    -0.28200
H242        H  0.79844396  0.05765873  0.56613063     0.08000
H243        H  0.74950973  0.01796937  0.73299135     0.26400
H244        H  0.74979708  0.24838511  0.64025944     0.21200
H245        H  0.87006980  0.03987695  0.53021889     0.26500
H246        H  0.71032037  0.12174179  0.51335237     0.15400
C247        C  0.30858735  0.10593798  0.60309038    -0.11900
C248        C  0.26597790  0.08396400  0.62180555     0.14600
C249        C  0.27016666  0.04661832  0.65691123     0.01500
C250        C  0.31602262  0.03528522  0.67604004    -0.16300
C251        C  0.35866972  0.05931856  0.66014841    -0.11100
C252        C  0.35504586  0.09393878  0.62188677     0.08200
C253        C  0.21764354  0.10615134  0.61121681     0.09300
S254        S  0.21675905  0.01619416  0.68085881    -0.25400
H255        H  0.31833778  0.00859452  0.70529736     0.19500
S256        S  0.40810928  0.12675648  0.60074086    -0.31100
H257        H  0.30493217  0.13478909  0.57609031     0.09800
C258        C  0.20523535  0.15109119  0.63180036     0.03100
C259        C  0.15988067  0.17191702  0.62142899    -0.13400
C260        C  0.12614124  0.14923837  0.59064412    -0.09100
C261        C  0.13673707  0.10233263  0.57329024     0.06500
C262        C  0.18277218  0.08141045  0.58334666    -0.14200
S263        S  0.24734913  0.18249960  0.67107616    -0.31100
H264        H  0.15139652  0.20747702  0.63565556     0.10700
S265        S  0.09300022  0.06993618  0.53710132    -0.28200
H266        H  0.19199159  0.04611577  0.56905705     0.08000
H267        H  0.38428108  0.15451552  0.56447091     0.26400
H268        H  0.21771319  0.22318136  0.68022823     0.21200
H269        H  0.12035096  0.02687057  0.53292932     0.26500
H270        H  0.24179109  0.97885598  0.70601911     0.15400
C271        C  0.80781567  0.91052771  0.42135185    -0.11900
C272        C  0.76874058  0.88423683  0.40180610     0.14600
C273        C  0.77410687  0.83418482  0.39336950     0.01500
C274        C  0.81767410  0.81111878  0.40590046    -0.16300
C275        C  0.85672029  0.83661864  0.42664143    -0.11100
C276        C  0.85193111  0.88720279  0.43399271     0.08200
C277        C  0.72506297  0.90994158  0.38321117     0.09300
S278        S  0.72633620  0.79976807  0.36428226    -0.25400
H279        H  0.82139334  0.77260053  0.39920846     0.19500
S280        S  0.90088070  0.92212220  0.45998182    -0.31100
H281        H  0.80372455  0.94933614  0.42613337     0.09800
C282        C  0.67841788  0.90220187  0.40340655     0.03100
C283        C  0.63681886  0.91448235  0.37596869    -0.13400
C284        C  0.64120434  0.93432999  0.32869271    -0.09100
C285        C  0.68858243  0.94707988  0.31116448     0.06500
C286        C  0.72960816  0.93458726  0.33876323    -0.14200
S287        S  0.67211618  0.87328754  0.46247216    -0.31100
H288        H  0.60100521  0.90586591  0.39025740     0.10700
S289        S  0.69907603  0.97686601  0.25280230    -0.28200
H290        H  0.76576408  0.94061231  0.32394652     0.08000
H291        H  0.87592490  0.96682487  0.46139673     0.26400
H292        H  0.62164895  0.88126840  0.46722668     0.21200
H293        H  0.74860068  0.98813835  0.25965032     0.26500
H294        H  0.75029545  0.75449135  0.36465445     0.15400
C295        C  0.31818884  0.88858414  0.39739173    -0.11900
C296        C  0.27367534  0.89740297  0.37322403     0.14600
C297        C  0.27405960  0.92391709  0.32917922     0.01500
C298        C  0.31825675  0.94154261  0.31049865    -0.16300
C299        C  0.36356679  0.93185689  0.33337924    -0.11100
C300        C  0.36313339  0.90519450  0.37790160     0.08200
C301        C  0.22759543  0.87438892  0.39115392     0.09300
S302        S  0.21847579  0.93229483  0.29464876    -0.25400
H303        H  0.31726920  0.96193046  0.27654872     0.19500
S304        S  0.41912353  0.89067334  0.40944222    -0.31100
H305        H  0.31773968  0.86724753  0.43076750     0.09800
C306        C  0.21641725  0.82613517  0.37908824     0.03100
C307        C  0.17192704  0.80579666  0.39414000    -0.13400
C308        C  0.13731750  0.83251407  0.42075885    -0.09100
C309        C  0.14789967  0.88139040  0.43187961     0.06500
C310        C  0.19294174  0.90182658  0.41693543    -0.14200
S311        S  0.25867930  0.79047229  0.34372694    -0.31100
H312        H  0.16406139  0.76840694  0.38523013     0.10700
S313        S  0.10561698  0.91697959  0.46703039    -0.28200
H314        H  0.20139217  0.93920615  0.42535413     0.08000
H315        H  0.39791559  0.86479513  0.44859369     0.26400
H316        H  0.22900731  0.74910434  0.33928101     0.21200
H317        H  0.13401479  0.95948092  0.46833232     0.26500
H318        H  0.23923440  0.95696916  0.25450777     0.15400
C319        C  0.81349912  0.09426537  0.39613555    -0.11900
C320        C  0.76900972  0.11998139  0.39868199     0.14600
C321        C  0.76890763  0.16559633  0.42119381     0.01500
C322        C  0.81243427  0.18470547  0.44004298    -0.16300
C323        C  0.85787510  0.16061153  0.43579000    -0.11100
C324        C  0.85779553  0.11398788  0.41413470     0.08200
C325        C  0.72398976  0.10196478  0.37311223     0.09300
S326        S  0.71347862  0.20118445  0.42332497    -0.25400
H327        H  0.81098229  0.21985995  0.45713046     0.19500
S328        S  0.91377176  0.08025061  0.40662160    -0.31100
H329        H  0.81372889  0.05943999  0.37828722     0.09800
C330        C  0.71634967  0.11249762  0.32329319     0.03100
C331        C  0.67244120  0.09881676  0.30073921    -0.13400
C332        C  0.63449611  0.07523673  0.32651422    -0.09100
C333        C  0.64186401  0.06536119  0.37677753     0.06500
C334        C  0.68637347  0.07833604  0.39928866    -0.14200
S335        S  0.76265179  0.14384985  0.28813974    -0.31100
H336        H  0.66782366  0.10611976  0.26218727     0.10700
S337        S  0.59715591  0.03396491  0.41330396    -0.28200
H338        H  0.69153035  0.07032366  0.43766051     0.08000
H339        H  0.89255593  0.03763362  0.38853458     0.26400
H340        H  0.73513645  0.14995189  0.24526125     0.21200
H341        H  0.55864915  0.06480144  0.39906503     0.26500
H342        H  0.73426369  0.24365881  0.44215351     0.15400
C343        C  0.30192999  0.06939611  0.39162194    -0.11900
C344        C  0.26141331  0.09165958  0.36926979     0.14600
C345        C  0.26458400  0.10556869  0.31973898     0.01500
C346        C  0.30656929  0.09397569  0.29302096    -0.16300
C347        C  0.34706086  0.07090367  0.31490366    -0.11100
C348        C  0.34496042  0.05962428  0.36541256     0.08200
C349        C  0.21867074  0.10570463  0.39969459     0.09300
S350        S  0.21662142  0.14097347  0.29106316    -0.25400
H351        H  0.30823398  0.10395644  0.25478856     0.19500
S352        S  0.39633357  0.03333942  0.39752000    -0.31100
H353        H  0.29998622  0.06059893  0.43013329     0.09800
C354        C  0.17059750  0.08921914  0.39106405     0.03100
C355        C  0.13097795  0.11184716  0.41422944    -0.13400
C356        C  0.13837584  0.14985299  0.44705791    -0.09100
C357        C  0.18708018  0.16191637  0.45994148     0.06500
C358        C  0.22624767  0.14009579  0.43583634    -0.14200
S359        S  0.15762867  0.04046695  0.35002511    -0.31100
H360        H  0.09419008  0.10120123  0.40482185     0.10700
S361        S  0.20095824  0.20658344  0.50552186    -0.28200
H362        H  0.26312270  0.15190619  0.44331747     0.08000
H363        H  0.37214751  0.02352914  0.44176827     0.26400
H364        H  0.20308423  0.01746615  0.35597668     0.21200
H365        H  0.24996587  0.19303769  0.51279545     0.26500
H366        H  0.23994008  0.14835993  0.24591763     0.15400
C367        C  0.61407546  0.80440980  0.09678780    -0.11900
C368        C  0.58841836  0.76176666  0.10927387     0.14600
C369        C  0.54612992  0.76521208  0.13819022     0.01500
C370        C  0.53161089  0.81067733  0.15563971    -0.16300
C371        C  0.55894529  0.85298161  0.14587508    -0.11100
C372        C  0.59968288  0.85004800  0.11452749     0.08200
C373        C  0.61049399  0.71377468  0.09776760     0.09300
S374        S  0.51296669  0.71122873  0.15643795    -0.25400
H375        H  0.50027413  0.81293420  0.17955442     0.19500
S376        S  0.63630835  0.90303548  0.10083444    -0.31100
H377        H  0.64674863  0.80140235  0.07484468     0.09800
C378        C  0.59086619  0.68097260  0.06368089     0.03100
C379        C  0.61472598  0.63682826  0.05479253    -0.13400
C380        C  0.65879808  0.62523943  0.07777805    -0.09100
C381        C  0.67701382  0.65660592  0.11384401     0.06500
C382        C  0.65283337  0.70041201  0.12318465    -0.14200
S383        S  0.53736221  0.69317269  0.02801450    -0.31100
H384        H  0.60040496  0.61279468  0.02738679     0.10700
S385        S  0.73071790  0.64078256  0.14888693    -0.28200
H386        H  0.66718328  0.72481767  0.15021838     0.08000
H387        H  0.66963023  0.88008294  0.06964918     0.26400
H388        H  0.52742833  0.74038462  0.04368426     0.21200
H389        H  0.72929211  0.68048886  0.18054767     0.26500
H390        H  0.47596149  0.73489219  0.18257962     0.15400
C391        C  0.57019193  0.18245733  0.07335097    -0.11900
C392        C  0.59653075  0.21739474  0.09934514     0.14600
C393        C  0.61201060  0.20665982  0.14708659     0.01500
C394        C  0.60069099  0.16163566  0.16809951    -0.16300
C395        C  0.57394547  0.12644171  0.14285525    -0.11100
C396        C  0.55855562  0.13694258  0.09479523     0.08200
C397        C  0.61331026  0.26287187  0.07524615     0.09300
S398        S  0.64728130  0.25004771  0.18120524    -0.25400
H399        H  0.61241915  0.15392611  0.20503592     0.19500
S400        S  0.52242040  0.09392318  0.06166485    -0.31100
H401        H  0.55903193  0.19095546  0.03638550     0.09800
C402        C  0.65727268  0.26283276  0.04911179     0.03100
C403        C  0.68044120  0.30691840  0.03870081    -0.13400
C404        C  0.66014670  0.35187599  0.05223801    -0.09100
C405        C  0.61380897  0.35204969  0.07503842     0.06500
C406        C  0.59135525  0.30738347  0.08704576    -0.14200
S407        S  0.68623460  0.20621401  0.03287831    -0.31100
H408        H  0.71567006  0.30606434  0.02104735     0.10700
S409        S  0.58482673  0.40798584  0.09303270    -0.28200
H410        H  0.55813346  0.30689407  0.10829658     0.08000
H411        H  0.52297073  0.11983427  0.01716585     0.26400
H412        H  0.72649149  0.22656545  0.00832522     0.21200
H413        H  0.53952788  0.38757020  0.10574304     0.26500
H414        H  0.65356271  0.22126858  0.22351324     0.15400
C415        C  0.58244716  0.76719020  0.83797848    -0.11900
C416        C  0.58456890  0.76690032  0.88875933     0.14600
C417        C  0.57524296  0.81101346  0.91321233     0.01500
C418        C  0.56584914  0.85427825  0.88630583    -0.16300
C419        C  0.56511650  0.85488230  0.83510629    -0.11100
C420        C  0.57229171  0.80956856  0.81089599     0.08200
C421        C  0.60417500  0.72180977  0.91355007     0.09300
S422        S  0.57457028  0.81239929  0.97877672    -0.25400
H423        H  0.55908236  0.88781968  0.90530167     0.19500
S424        S  0.57032268  0.80302265  0.74526755    -0.31100
H425        H  0.59094833  0.73394433  0.81909281     0.09800
C426        C  0.58520636  0.67469088  0.90538723     0.03100
C427        C  0.61229454  0.63292448  0.91930657    -0.13400
C428        C  0.65777648  0.63689039  0.94246065    -0.09100
C429        C  0.67393841  0.68447394  0.95512202     0.06500
C430        C  0.64773909  0.72563011  0.93948250    -0.14200
S431        S  0.52620813  0.66758486  0.87766813    -0.31100
H432        H  0.59861774  0.59715075  0.91086247     0.10700
S433        S  0.72822746  0.69526148  0.99081696    -0.28200
H434        H  0.66276614  0.76140799  0.94556229     0.08000
H435        H  0.56371800  0.75231690  0.74457188     0.26400
H436        H  0.52463179  0.61650530  0.88021868     0.21200
H437        H  0.71595925  0.74253075  0.00559264     0.26500
H438        H  0.56466424  0.86231563  0.98336579     0.15400
C439        C  0.66372561  0.26741237  0.90986574    -0.11900
C440        C  0.61290774  0.26942518  0.91021927     0.14600
C441        C  0.58992254  0.31378699  0.92213350     0.01500
C442        C  0.61817042  0.35561406  0.93013631    -0.16300
C443        C  0.66946871  0.35413046  0.92847739    -0.11100
C444        C  0.69229895  0.30828469  0.91939618     0.08200
C445        C  0.58649831  0.22585413  0.89206775     0.09300
S446        S  0.52478623  0.31941375  0.92741217    -0.25400
H447        H  0.59982974  0.38935007  0.93871643     0.19500
S448        S  0.75772913  0.29911646  0.91976236    -0.31100
H449        H  0.68120715  0.23344130  0.90058009     0.09800
C450        C  0.56239563  0.22756908  0.84686774     0.03100
C451        C  0.54643409  0.18438097  0.82597854    -0.13400
C452        C  0.55665482  0.13828629  0.84696602    -0.09100
C453        C  0.57898563  0.13655456  0.89340695     0.06500
C454        C  0.59316506  0.18038295  0.91555956    -0.14200
S455        S  0.55729551  0.28384825  0.81223228    -0.31100
H456        H  0.52831859  0.18668286  0.79105323     0.10700
S457        S  0.59296369  0.07934729  0.92334845    -0.28200
H458        H  0.61226171  0.17918410  0.95001960     0.08000
H459        H  0.75802965  0.24798627  0.91949870     0.26400
H460        H  0.53023092  0.26561979  0.77308279     0.21200
H461        H  0.60811067  0.09885100  0.96791734     0.26500
H462        H  0.51552567  0.27000315  0.93747208     0.15400
C463        C  0.89040468  0.67105822  0.71820650    -0.11900
C464        C  0.91138927  0.62705287  0.73321611     0.14600
C465        C  0.94457987  0.60331328  0.70210569     0.01500
C466        C  0.95679862  0.62486403  0.65678880    -0.16300
C467        C  0.93624626  0.66957950  0.64225491    -0.11100
C468        C  0.90232454  0.69258275  0.67339806     0.08200
C469        C  0.89240404  0.60448104  0.77880255     0.09300
S470        S  0.97214692  0.54640843  0.72071583    -0.25400
H471        H  0.98324821  0.60767522  0.63331031     0.19500
S472        S  0.87231508  0.74878456  0.65600923    -0.31100
H473        H  0.86376003  0.68809208  0.74161650     0.09800
C474        C  0.90179295  0.62395042  0.82514049     0.03100
C475        C  0.87647584  0.60589072  0.86625764    -0.13400
C476        C  0.83968747  0.57079745  0.86149313    -0.09100
C477        C  0.82925735  0.55288489  0.81411081     0.06500
C478        C  0.85682423  0.56875878  0.77413118    -0.14200
S479        S  0.94416552  0.67350017  0.83142028    -0.31100
H480        H  0.88377760  0.62062859  0.90183467     0.10700
S481        S  0.77954779  0.51169850  0.80184111    -0.28200
H482        H  0.84824200  0.55579607  0.73808625     0.08000
H483        H  0.84439052  0.75460747  0.69851216     0.26400
H484        H  0.93613873  0.68117401  0.88130270     0.21200
H485        H  0.79731682  0.49440174  0.75721724     0.26500
H486        H  0.00156327  0.54063643  0.67918568     0.15400
C487        C  0.92172863  0.58544687  0.31267682    -0.11900
C488        C  0.89280152  0.60981330  0.27776752     0.14600
C489        C  0.87289313  0.65555352  0.28884644     0.01500
C490        C  0.88608590  0.67812524  0.33214864    -0.16300
C491        C  0.91769312  0.65556160  0.36588118    -0.11100
C492        C  0.93387530  0.60762081  0.35707968     0.08200
C493        C  0.87918176  0.58550526  0.23179851     0.09300
S494        S  0.83011280  0.68519260  0.24802136    -0.25400
H495        H  0.87247745  0.71430760  0.33936858     0.19500
S496        S  0.97076184  0.57505626  0.40116539    -0.31100
H497        H  0.93485385  0.54922664  0.30488592     0.09800
C498        C  0.89771814  0.60051472  0.18602690     0.03100
C499        C  0.87656789  0.58285359  0.14297921    -0.13400
C500        C  0.83576262  0.55203340  0.14477577    -0.09100
C501        C  0.81853778  0.53587390  0.19146482     0.06500
C502        C  0.84122568  0.55200382  0.23382716    -0.14200
S503        S  0.94634281  0.64446923  0.18260848    -0.31100
H504        H  0.88982471  0.59558695  0.10793104     0.10700
S505        S  0.76507279  0.49808436  0.19978515    -0.28200
H506        H  0.82673107  0.54147071  0.26913778     0.08000
H507        H  0.97680729  0.53241689  0.37409806     0.26400
H508        H  0.94735814  0.64918280  0.13156852     0.21200
H509        H  0.77586375  0.48157877  0.24731301     0.26500
H510        H  0.81766215  0.72374263  0.27881302     0.15400
C511        C  0.90585541  0.44097056  0.79771595    -0.11900
C512        C  0.88684980  0.40008656  0.77347537     0.14600
C513        C  0.85722701  0.36795757  0.80142937     0.01500
C514        C  0.83554896  0.38428542  0.84425157    -0.16300
C515        C  0.85049727  0.42742984  0.86598671    -0.11100
C516        C  0.89062267  0.45232760  0.84548854     0.08200
C517        C  0.89810801  0.39059094  0.72049308     0.09300
S518        S  0.84857689  0.30461894  0.78717880    -0.25400
H519        H  0.80768369  0.36265518  0.86129470     0.19500
S520        S  0.92448089  0.49532203  0.88087815    -0.31100
H521        H  0.93237671  0.46391644  0.77990059     0.09800
C522        C  0.86342467  0.36860944  0.68941735     0.03100
C523        C  0.87946998  0.34598277  0.64678554    -0.13400
C524        C  0.92691284  0.35320774  0.62927939    -0.09100
C525        C  0.95599387  0.38842334  0.65232789     0.06500
C526        C  0.94349500  0.40331571  0.69959148    -0.14200
S527        S  0.79864777  0.37216732  0.70163504    -0.31100
H528        H  0.85492893  0.32278048  0.62681198     0.10700
S529        S  0.00654935  0.41822244  0.62253152    -0.28200
H530        H  0.96947391  0.42482239  0.71951453     0.08000
H531        H  0.95614530  0.51058203  0.84333249     0.26400
H532        H  0.78319080  0.34720001  0.66007346     0.21200
H533        H  0.99120021  0.40879332  0.57486691     0.26500
H534        H  0.89160840  0.30010062  0.75970129     0.15400
C535        C  0.91073556  0.41730646  0.18883905    -0.11900
C536        C  0.88560409  0.39051812  0.22477236     0.14600
C537        C  0.83660083  0.37782225  0.21707573     0.01500
C538        C  0.81385359  0.39140369  0.17339856    -0.16300
C539        C  0.83848525  0.41847550  0.13706171    -0.11100
C540        C  0.88795743  0.43088377  0.14470357     0.08200
C541        C  0.91157281  0.37262930  0.26882042     0.09300
S542        S  0.80277550  0.34444613  0.26315193    -0.25400
H543        H  0.77614127  0.38134838  0.16781602     0.19500
S544        S  0.92217575  0.46489210  0.09958614    -0.31100
H545        H  0.94839477  0.42696999  0.19529262     0.09800
C546        C  0.93278102  0.32595904  0.27023876     0.03100
C547        C  0.94908971  0.30663995  0.31450195    -0.13400
C548        C  0.94372580  0.33173690  0.35860866    -0.09100
C549        C  0.92491243  0.37976469  0.35680708     0.06500
C550        C  0.90916127  0.39963571  0.31181287    -0.14200
S551        S  0.93610551  0.28677626  0.21806266    -0.31100
H552        H  0.96434893  0.27028006  0.31444928     0.10700
S553        S  0.91763781  0.41510374  0.41123675    -0.28200
H554        H  0.89246926  0.43534620  0.31039155     0.08000
H555        H  0.96814508  0.45896083  0.12152612     0.26400
H556        H  0.93442791  0.32291923  0.18159817     0.21200
H557        H  0.90375986  0.45888567  0.38796423     0.26500
H558        H  0.75734648  0.34553921  0.23937318     0.15400
C559        C  0.34567672  0.70244598  0.86585271    -0.11900
C560        C  0.38057543  0.72448385  0.89536081     0.14600
C561        C  0.39464767  0.70124817  0.93923283     0.01500
C562        C  0.37525230  0.65550571  0.95167859    -0.16300
C563        C  0.33988434  0.63376036  0.92228727    -0.11100
C564        C  0.32522499  0.65759628  0.87873943     0.08200
C565        C  0.40302768  0.77037322  0.87748625     0.09300
S566        S  0.43382354  0.73021370  0.98224944    -0.25400
H567        H  0.38569523  0.63822171  0.98578115     0.19500
S568        S  0.28074532  0.63084920  0.83873819    -0.31100
H569        H  0.33469007  0.72059281  0.83234943     0.09800
C570        C  0.43024412  0.77077483  0.83409529     0.03100
C571        C  0.44781630  0.81466638  0.81561167    -0.13400
C572        C  0.43724592  0.85934943  0.83769784    -0.09100
C573        C  0.41141252  0.85897815  0.88232986     0.06500
C574        C  0.39469740  0.81429257  0.90179215    -0.14200
S575        S  0.44097770  0.71570951  0.80038468    -0.31100
H576        H  0.46816559  0.81413435  0.78192311     0.10700
S577        S  0.39697350  0.91459583  0.91340943    -0.28200
H578        H  0.37354571  0.81360411  0.93500044     0.08000
H579        H  0.27639893  0.67038040  0.80594660     0.26400
H580        H  0.46375587  0.73726283  0.75959005     0.21200
H581        H  0.37613711  0.89283203  0.95516778     0.26500
H582        H  0.46553971  0.75093942  0.94744772     0.15400
C583        C  0.40300844  0.31543310  0.90125835    -0.11900
C584        C  0.38584085  0.27006709  0.91855069     0.14600
C585        C  0.35211218  0.26959565  0.95743162     0.01500
C586        C  0.33331193  0.31375049  0.97478851    -0.16300
C587        C  0.34713129  0.35911740  0.95456778    -0.11100
C588        C  0.38431178  0.35979119  0.91883248     0.08200
C589        C  0.39955049  0.22436354  0.89212230     0.09300
S590        S  0.32899993  0.21292458  0.98216005    -0.25400
H591        H  0.30555011  0.31279065  0.00285357     0.19500
S592        S  0.40526404  0.41637317  0.89216258    -0.31100
H593        H  0.42937016  0.31592111  0.87188841     0.09800
C594        C  0.38766236  0.21877331  0.84249409     0.03100
C595        C  0.40128643  0.17623110  0.81824216    -0.13400
C596        C  0.42477687  0.13709686  0.84230588    -0.09100
C597        C  0.43391480  0.14130392  0.89279915     0.06500
C598        C  0.42269411  0.18526126  0.91667357    -0.14200
S599        S  0.35310093  0.26493577  0.80990674    -0.31100
H600        H  0.39288465  0.17327070  0.77990623     0.10700
S601        S  0.46025542  0.09164217  0.92731949    -0.28200
H602        H  0.43176171  0.18910464  0.95478250     0.08000
H603        H  0.44307440  0.39651989  0.86400325     0.26400
H604        H  0.34569302  0.23870071  0.76697181     0.21200
H605        H  0.44586444  0.10863643  0.97321588     0.26500
H606        H  0.30381436  0.23286349  0.02182832     0.15400
C607        C  0.36626841  0.71391860  0.11675237    -0.11900
C608        C  0.35160687  0.75566278  0.09036670     0.14600
C609        C  0.32248068  0.75015798  0.04867466     0.01500
C610        C  0.30756481  0.70347795  0.03497595    -0.16300
C611        C  0.32153642  0.66148351  0.06154768    -0.11100
C612        C  0.35139225  0.66698662  0.10300620     0.08200
C613        C  0.36543673  0.80469512  0.10841306     0.09300
S614        S  0.30202714  0.80274511  0.01427848    -0.25400
H615        H  0.28393531  0.69967664  0.00369684     0.19500
S616        S  0.36699200  0.61520782  0.14107044    -0.31100
H617        H  0.38831035  0.71844580  0.14903018     0.09800
C618        C  0.34328520  0.82418574  0.15020029     0.03100
C619        C  0.36110041  0.86765668  0.16958973    -0.13400
C620        C  0.40033583  0.89278163  0.14793044    -0.09100
C621        C  0.41974186  0.87535795  0.10373316     0.06500
C622        C  0.40241811  0.83138766  0.08473596    -0.14200
S623        S  0.29343453  0.79277426  0.18002255    -0.31100
H624        H  0.34640862  0.88066769  0.20365214     0.10700
S625        S  0.46877483  0.90540520  0.07168592    -0.28200
H626        H  0.41894113  0.81711287  0.05206320     0.08000
H627        H  0.39262193  0.64098307  0.17672943     0.26400
H628        H  0.28431058  0.82791287  0.21566385     0.21200
H629        H  0.45856441  0.95223184  0.08864835     0.26500
H630        H  0.28395985  0.77712417  0.97417711     0.15400
C631        C  0.36814485  0.32148126  0.14989807    -0.11900
C632        C  0.40757388  0.30617555  0.12163536     0.14600
C633        C  0.42163391  0.33393699  0.08048675     0.01500
C634        C  0.39512658  0.37614126  0.06771249    -0.16300
C635        C  0.35361951  0.38962583  0.09432636    -0.11100
C636        C  0.34071133  0.36243984  0.13648236     0.08200
C637        C  0.43113716  0.25948504  0.13550410     0.09300
S638        S  0.47163058  0.31426750  0.04314461    -0.25400
H639        H  0.40465657  0.39664909  0.03514832     0.19500
S640        S  0.28871718  0.37920448  0.17318195    -0.31100
H641        H  0.35794310  0.30010449  0.18172498     0.09800
C642        C  0.46499773  0.25644124  0.17400016     0.03100
C643        C  0.47550794  0.21116230  0.19533240    -0.13400
C644        C  0.45288452  0.16832822  0.17946449    -0.09100
C645        C  0.42182237  0.17095932  0.13832586     0.06500
C646        C  0.41138828  0.21656590  0.11689291    -0.14200
S647        S  0.49322702  0.30917579  0.20019456    -0.31100
H648        H  0.50054750  0.20971068  0.22582147     0.10700
S649        S  0.39133600  0.11772815  0.11555489    -0.28200
H650        H  0.38504147  0.21933343  0.08763559     0.08000
H651        H  0.29088149  0.33974948  0.20628520     0.26400
H652        H  0.48565063  0.34107414  0.16060289     0.21200
H653        H  0.36925114  0.14034529  0.07491331     0.26500
H654        H  0.47524635  0.35762817  0.01559192     0.15400
C655        C  0.17797515  0.55910672  0.75879450    -0.11900
C656        C  0.14173915  0.59494800  0.75632575     0.14600
C657        C  0.11788379  0.60784059  0.80019563     0.01500
C658        C  0.13424500  0.58877215  0.84541912    -0.16300
C659        C  0.17302221  0.55528070  0.84818563    -0.11100
C660        C  0.19335622  0.53870406  0.80351284     0.08200
C661        C  0.13126153  0.61877780  0.70762888     0.09300
S662        S  0.06648552  0.64864656  0.80083089    -0.25400
H663        H  0.11753261  0.60138492  0.87869243     0.19500
S664        S  0.23961032  0.49163569  0.80215902    -0.31100
H665        H  0.19530819  0.54803365  0.72529730     0.09800
C666        C  0.14050350  0.66870591  0.69859131     0.03100
C667        C  0.12945673  0.68953920  0.65268695    -0.13400
C668        C  0.11104098  0.66157949  0.61440085    -0.09100
C669        C  0.10399593  0.61131337  0.62251062     0.06500
C670        C  0.11420312  0.59045271  0.66880700    -0.14200
S671        S  0.16759756  0.70597131  0.74495823    -0.31100
H672        H  0.13439066  0.72822727  0.64667560     0.10700
S673        S  0.07989431  0.57420347  0.57459945    -0.28200
H674        H  0.10802723  0.55201703  0.67519057     0.08000
H675        H  0.24442085  0.48876193  0.75130635     0.26400
H676        H  0.16950135  0.74943430  0.71734654     0.21200
H677        H  0.07924734  0.53017737  0.60134073     0.26500
H678        H  0.04981178  0.63796517  0.75378320     0.15400
C679        C  0.14418671  0.62616953  0.20533434    -0.11900
C680        C  0.10681442  0.59589922  0.22253469     0.14600
C681        C  0.08801505  0.56001557  0.19139940     0.01500
C682        C  0.10967361  0.55282860  0.14512692    -0.16300
C683        C  0.14923202  0.58157034  0.12923477    -0.11100
C684        C  0.16496642  0.61999480  0.15923245     0.08200
C685        C  0.08388960  0.60901380  0.26997890     0.09300
S686        S  0.03696412  0.52332156  0.21096960    -0.25400
H687        H  0.09731826  0.52353368  0.12237961     0.19500
S688        S  0.21164074  0.66208397  0.13879991    -0.31100
H689        H  0.15672034  0.65531655  0.22824251     0.09800
C690        C  0.10118055  0.59208531  0.31565751     0.03100
C691        C  0.08594664  0.61508659  0.35906004    -0.13400
C692        C  0.05544295  0.65636881  0.35748160    -0.09100
C693        C  0.03753940  0.67214805  0.31075376     0.06500
C694        C  0.05097899  0.64746019  0.26867025    -0.14200
S695        S  0.14528611  0.54352005  0.31815528    -0.31100
H696        H  0.10052646  0.60305357  0.39381174     0.10700
S697        S  0.99995225  0.72581301  0.30160892    -0.28200
H698        H  0.03886466  0.66066795  0.23341851     0.08000
H699        H  0.21086811  0.69254217  0.17948262     0.26400
H700        H  0.14856170  0.54046321  0.36919790     0.21200
H701        H  0.00132573  0.72849577  0.25046664     0.26500
H702        H  0.03525815  0.49410633  0.16945429     0.15400
C703        C  0.13329825  0.37223861  0.70001212    -0.11900
C704        C  0.10544756  0.36631300  0.74288877     0.14600
C705        C  0.05975122  0.34306009  0.73980312     0.01500
C706        C  0.04433185  0.32425185  0.69509487    -0.16300
C707        C  0.07227741  0.32951681  0.65223889    -0.11100
C708        C  0.11735312  0.35410632  0.65505615     0.08200
C709        C  0.12621810  0.38166322  0.79079962     0.09300
S710        S  0.02204736  0.33425978  0.79321891    -0.25400
H711        H  0.01027921  0.30445650  0.69357902     0.19500
S712        S  0.15842870  0.35833971  0.60410654    -0.31100
H713        H  0.16851244  0.38993287  0.70191243     0.09800
C714        C  0.16996861  0.36112564  0.80885888     0.03100
C715        C  0.18990887  0.37806158  0.85245745    -0.13400
C716        C  0.16665415  0.41407204  0.88001951    -0.09100
C717        C  0.12104673  0.43212553  0.86400931     0.06500
C718        C  0.10194557  0.41664623  0.81905217    -0.14200
S719        S  0.20025252  0.31239609  0.77714443    -0.31100
H720        H  0.22448986  0.36353638  0.86504174     0.10700
S721        S  0.08764305  0.47559594  0.89965367    -0.28200
H722        H  0.06808589  0.43201710  0.80557859     0.08000
H723        H  0.12330865  0.37879174  0.57268027     0.26400
H724        H  0.23999263  0.30702278  0.80914219     0.21200
H725        H  0.04813775  0.48146218  0.86745758     0.26500
H726        H  0.98067220  0.31685352  0.76887305     0.15400
C727        C  0.08736658  0.40741851  0.32527284    -0.11900
C728        C  0.10418345  0.38148624  0.28475551     0.14600
C729        C  0.10904982  0.33059411  0.28872753     0.01500
C730        C  0.09499110  0.30668160  0.33183996    -0.16300
C731        C  0.07723642  0.33210487  0.37246062    -0.11100
C732        C  0.07418889  0.38346922  0.36916594     0.08200
C733        C  0.12092211  0.40829844  0.24014724     0.09300
S734        S  0.13584980  0.29592713  0.23997272    -0.25400
H735        H  0.09877646  0.26755344  0.33405229     0.19500
S736        S  0.05307673  0.41902821  0.41979508    -0.31100
H737        H  0.08469212  0.44662031  0.32232460     0.09800
C738        C  0.10003697  0.40156763  0.19363878     0.03100
C739        C  0.12373048  0.42006255  0.15187588    -0.13400
C740        C  0.16681739  0.44743200  0.15543286    -0.09100
C741        C  0.18403950  0.45917195  0.20281153     0.06500
C742        C  0.16169921  0.43837351  0.24407590    -0.14200
S743        S  0.04364021  0.36920246  0.18527565    -0.31100
H744        H  0.10881406  0.41219445  0.11635163     0.10700
S745        S  0.23387050  0.50119103  0.21230546    -0.28200
H746        H  0.17683295  0.44447888  0.27983551     0.08000
H747        H  0.05962040  0.46510432  0.39785500     0.26400
H748        H  0.02485907  0.37792511  0.23201046     0.21200
H749        H  0.23668331  0.49652304  0.26327769     0.26500
H750        H  0.13141196  0.24967933  0.26207419     0.15400
loop_ 
_geom_bond_atom_site_label_1 
_geom_bond_atom_site_label_2 
_geom_bond_distance 
_geom_bond_site_symmetry_2 
_ccdc_geom_bond_type 
O1            C9   1.274       .  A
O1          Co21   2.004       .  S
O2           C10   1.281       .  A
O2          Co22   2.020       .  S
O3           C11   1.273       .  A
O3          Co23   2.008       .  S
O4           C12   1.276       .  A
O4          Co24   2.022       .  S
O5           C11   1.283       .  A
O5          Co22   2.017   1_554  S
O6           C12   1.276       .  A
O6          Co21   2.000   1_556  S
O7           C10   1.265       .  A
O7          Co24   1.999       .  S
O8            C9   1.265       .  A
O8          Co23   2.005       .  S
C9          C740   1.500       .  S
C10         C659   1.509       .  S
C11         C683   1.493       .  S
C12         C716   1.492       .  S
O13          C26   1.271       .  A
O13         Co21   2.017   1_556  S
O14          C27   1.269       .  A
O14         Co22   2.012   1_554  S
O15          C28   1.274       .  A
O15         Co23   1.986       .  S
O16          C29   1.277       .  A
O16         Co24   1.992       .  S
O17          C29   1.275       .  A
O17         Co22   2.013       .  S
O18          C28   1.276       .  A
O18         Co21   2.023       .  S
O19          C26   1.274       .  A
O19         Co24   2.001       .  S
O20          C27   1.274       .  A
O20         Co23   1.996       .  S
Co21         O25   2.105       .  S
Co22         O25   2.111   1_556  S
Co23         O25   2.099       .  S
Co24         O25   2.098   1_556  S
C26         C587   1.503       .  S
C27         C611   1.494       .  S
C28         C635   1.478       .  S
C29         C563   1.475       .  S
O30          C38   1.272       .  A
O30         Co50   2.020       .  S
O31          C39   1.264       .  A
O31         Co51   1.993       .  S
O32          C40   1.270       .  A
O32         Co52   1.987       .  S
O33          C41   1.282       .  A
O33         Co53   2.012       .  S
O34          C40   1.281       .  A
O34         Co51   2.045       .  S
O35          C41   1.267       .  A
O35         Co50   1.999       .  S
O36          C39   1.282       .  A
O36         Co53   2.013   1_556  S
O37          C38   1.268       .  A
O37         Co52   1.983   1_554  S
C38         C539   1.491       .  S
C39         C476   1.492       .  S
C40         C515   1.490       .  S
C41         C500   1.497       .  S
O42          C55   1.272       .  A
O42         Co50   1.988       .  S
O43          C56   1.278       .  A
O43         Co51   2.010       .  S
O44          C57   1.275       .  A
O44         Co52   2.022   1_554  S
O45          C58   1.269       .  A
O45         Co53   2.007   1_556  S
O46          C58   1.285       .  A
O46         Co51   2.024       .  S
O47          C57   1.271       .  A
O47         Co50   1.983       .  S
O48          C55   1.271       .  A
O48         Co53   2.013       .  S
O49          C56   1.265       .  A
O49         Co52   2.008       .  S
Co50         O54   2.099   1_554  S
Co51         O54   2.103       .  S
Co52         O54   2.100       .  S
Co53         O54   2.103   1_554  S
C55         C380   1.480       .  S
C56         C443   1.505       .  S
C57         C404   1.493       .  S
C58         C428   1.508       .  S
O59          C67   1.315       .  A
O59         Co79   2.088       .  S
O60          C68   1.275       .  A
O60         Co80   2.004       .  S
O61          C69   1.250       .  A
O61         Co81   2.009   1_565  S
O62          C70   1.292       .  A
O62         Co82   2.055   1_545  S
O63          C69   1.257       .  A
O63         Co80   2.010       .  S
O64          C70   1.295       .  A
O64         Co79   2.021       .  S
O65          C68   1.265       .  A
O65         Co82   1.990       .  S
O66          C67   1.288       .  A
O66         Co81   1.895       .  S
C67         C347   1.495       .  S
C68         C284   1.490       .  S
C69         C299   1.508       .  S
C70         C332   1.509       .  S
O71          C84   1.250       .  A
O71         Co79   2.012       .  S
O72          C85   1.294       .  A
O72         Co80   2.046       .  S
O73          C86   1.311       .  A
O73         Co81   2.076       .  S
O74          C87   1.271       .  A
O74         Co82   1.993       .  S
O75          C87   1.270       .  A
O75         Co80   2.001       .  S
O76          C86   1.287       .  A
O76         Co79   1.899       .  S
O77          C84   1.254       .  A
O77         Co82   2.005   1_545  S
O78          C85   1.294       .  A
O78         Co81   2.001   1_565  S
Co79         O83   2.014   1_545  S
Co80         O83   2.028       .  S
Co81         O83   2.014   1_545  S
Co82         O83   2.030       .  S
C84         C395   1.484       .  S
C85         C620   1.484       .  S
C86         C644   1.490       .  S
C87         C371   1.486       .  S
O88          C96   1.268       .  A
O88        Co108   1.998   1_545  S
O89          C97   1.275       .  A
O89        Co109   2.022   1_565  S
O90          C98   1.274       .  A
O90        Co110   1.992       .  S
O91          C99   1.280       .  A
O91        Co111   2.011       .  S
O92          C98   1.267       .  A
O92        Co109   2.003       .  S
O93          C99   1.275       .  A
O93        Co108   2.025       .  S
O94          C97   1.285       .  A
O94        Co111   2.026       .  S
O95          C96   1.275       .  A
O95        Co110   2.002       .  S
C96         C251   1.488       .  S
C97         C179   1.513       .  S
C98         C227   1.487       .  S
C99         C203   1.499       .  S
O100        C113   1.271       .  A
O100       Co108   1.981       .  S
O101        C114   1.279       .  A
O101       Co109   2.005       .  S
O102        C115   1.274       .  A
O102       Co110   2.024       .  S
O103        C116   1.263       .  A
O103       Co111   1.997       .  S
O104        C116   1.281       .  A
O104       Co109   2.023   1_565  S
O105        C115   1.276       .  A
O105       Co108   2.007   1_545  S
O106        C113   1.275       .  A
O106       Co111   2.006       .  S
O107        C114   1.275       .  A
O107       Co110   2.010       .  S
Co108       O112   2.102   1_565  S
Co109       O112   2.103       .  S
Co110       O112   2.096       .  S
Co111       O112   2.102   1_565  S
C113        C572   1.489       .  S
C114        C452   1.502       .  S
C115        C596   1.506       .  S
C116        C419   1.510       .  S
O117        C125   1.276       .  A
O117       Co137   1.991       .  S
O118        C126   1.268       .  A
O118       Co138   1.982       .  S
O119        C127   1.269       .  A
O119       Co139   2.005   1_655  S
O120        C128   1.265       .  A
O120       Co140   2.002   1_455  S
O121        C127   1.269       .  A
O121       Co138   1.991       .  S
O122        C128   1.278       .  A
O122       Co137   2.007       .  S
O123        C126   1.281       .  A
O123       Co140   2.048       .  S
O124        C125   1.277       .  A
O124       Co139   2.021       .  S
C125        C731   1.499       .  S
C126        C524   1.489       .  S
C127        C548   1.496       .  S
C128        C707   1.494       .  S
O129        C142   1.272       .  A
O129       Co137   2.003       .  S
O130        C143   1.278       .  A
O130       Co138   2.031       .  S
O131        C144   1.276       .  A
O131       Co139   2.000       .  S
O132        C145   1.263       .  A
O132       Co140   1.972       .  S
O133        C145   1.270       .  A
O133       Co138   2.010       .  S
O134        C144   1.268       .  A
O134       Co137   2.005       .  S
O135        C142   1.273       .  A
O135       Co140   1.998   1_455  S
O136        C143   1.281       .  A
O136       Co139   2.017   1_655  S
Co137       O141   2.101       .  S
Co138       O141   2.100   1_655  S
Co139       O141   2.109       .  S
Co140       O141   2.102   1_655  S
C142        C260   1.484       .  S
C143        C323   1.521       .  S
C144        C356   1.493       .  S
C145        C236   1.482       .  S
O146        C154   1.263       .  A
O146       Co166   1.986   1_455  S
O147        C155   1.273       .  A
O147       Co167   1.990   1_655  S
O148        C156   1.281       .  A
O148       Co168   1.919       .  S
O149        C157   1.276       .  A
O149       Co169   1.993       .  S
O150        C156   1.297       .  A
O150       Co167   2.144       .  S
O151        C157   1.281       .  A
O151       Co166   2.023       .  S
O152        C155   1.282       .  A
O152       Co169   2.014       .  S
O153        C154   1.290       .  A
O153       Co168   2.047       .  S
C154        C692   1.511       .  S
C155        C467   1.481       .  S
C156        C668   1.493       .  S
C157        C491   1.487       .  S
O158        C171   1.275       .  A
O158       Co166   1.989       .  S
O159        C172   1.281       .  A
O159       Co167   1.920       .  S
O160        C173   1.276       .  A
O160       Co168   1.996       .  S
O161        C174   1.267       .  A
O161       Co169   1.994       .  S
O162        C174   1.290       .  A
O162       Co167   2.049   1_655  S
O163        C173   1.286       .  A
O163       Co166   2.025   1_455  S
O164        C171   1.277       .  A
O164       Co169   2.005       .  S
O165        C172   1.296       .  A
O165       Co168   2.131       .  S
Co166       O170   2.017       .  S
Co167       O170   1.973   1_455  S
Co168       O170   1.962   1_455  S
Co169       O170   2.016       .  S
C171        C275   1.484       .  S
C172        C212   1.511       .  S
C173        C308   1.495       .  S
C174        C188   1.521       .  S
C175        C176   1.398       .  A
C175        C180   1.406       .  A
C175        H185   1.083       .  S
C176        C181   1.505       .  S
C176        C177   1.419       .  A
C177        C178   1.419       .  A
C177        S182   1.803       .  S
C178        C179   1.411       .  A
C178        H183   1.083       .  S
C179        C180   1.426       .  A
C180        S184   1.811       .  S
C181        C186   1.416       .  A
C181        C190   1.392       .  A
S182        H198   1.405       .  S
S184        H195   1.406       .  S
C186        C187   1.424       .  A
C186        S191   1.802       .  S
C187        C188   1.411       .  A
C187        H192   1.082       .  S
C188        C189   1.437       .  A
C189        C190   1.403       .  A
C189        S193   1.813       .  S
C190        H194   1.083       .  S
S191        H196   1.407       .  S
S193        H197   1.407       .  S
C199        C200   1.398       .  A
C199        C204   1.401       .  A
C199        H209   1.083       .  S
C200        C205   1.500       .  S
C200        C201   1.422       .  A
C201        C202   1.415       .  A
C201        S206   1.805       .  S
C202        C203   1.407       .  A
C202        H207   1.083       .  S
C203        C204   1.418       .  A
C204        S208   1.805       .  S
C205        C210   1.406       .  A
C205        C214   1.411       .  A
S206        H222   1.405       .  S
S208        H219   1.406       .  S
C210        C211   1.403       .  A
C210        S215   1.808       .  S
C211        C212   1.416       .  A
C211        H216   1.079       .  S
C212        C213   1.417       .  A
C213        C214   1.415       .  A
C213        S217   1.806       .  S
C214        H218   1.082       .  S
S215        H220   1.406       .  S
S217        H221   1.407       .  S
C223        C224   1.393       .  A
C223        C228   1.394       .  A
C223        H233   1.083       .  S
C224        C229   1.473       .  S
C224        C225   1.410       .  A
C225        C226   1.402       .  A
C225        S230   1.802       .  S
C226        C227   1.407       .  A
C226        H231   1.083       .  S
C227        C228   1.427       .  A
C228        S232   1.813       .  S
C229        C234   1.406       .  A
C229        C238   1.402       .  A
S230        H246   1.406       .  S
S232        H243   1.407       .  S
C234        C235   1.394       .  A
C234        S239   1.809       .  S
C235        C236   1.406       .  A
C235        H240   1.083       .  S
C236        C237   1.417       .  A
C237        C238   1.405       .  A
C237        S241   1.806       .  S
C238        H242   1.082       .  S
S239        H244   1.407       .  S
S241        H245   1.407       .  S
C247        C248   1.409       .  A
C247        C252   1.412       .  A
C247        H257   1.083       .  S
C248        C253   1.485       .  S
C248        C249   1.403       .  A
C249        C250   1.396       .  A
C249        S254   1.806       .  S
C250        C251   1.410       .  A
C250        H255   1.082       .  S
C251        C252   1.411       .  A
C252        S256   1.805       .  S
C253        C258   1.408       .  A
C253        C262   1.408       .  A
S254        H270   1.407   1_545  S
S256        H267   1.407       .  S
C258        C259   1.396       .  A
C258        S263   1.810       .  S
C259        C260   1.407       .  A
C259        H264   1.083       .  S
C260        C261   1.411       .  A
C261        C262   1.412       .  A
C261        S265   1.803       .  S
C262        H266   1.082       .  S
S263        H268   1.407       .  S
S265        H269   1.407       .  S
C271        C272   1.405       .  A
C271        C276   1.409       .  A
C271        H281   1.083       .  S
C272        C277   1.477       .  S
C272        C273   1.407       .  A
C273        C274   1.393       .  A
C273        S278   1.811       .  S
C274        C275   1.407       .  A
C274        H279   1.082       .  S
C275        C276   1.415       .  A
C276        S280   1.806       .  S
C277        C282   1.409       .  A
C277        C286   1.393       .  A
S278        H294   1.407       .  S
S280        H291   1.407       .  S
C282        C283   1.406       .  A
C282        S287   1.804       .  S
C283        C284   1.406       .  A
C283        H288   1.082       .  S
C284        C285   1.427       .  A
C285        C286   1.397       .  A
C285        S289   1.812       .  S
C286        H290   1.083       .  S
S287        H292   1.407       .  S
S289        H293   1.407       .  S
C295        C296   1.409       .  A
C295        C300   1.417       .  A
C295        H305   1.081       .  S
C296        C301   1.494       .  S
C296        C297   1.403       .  A
C297        C298   1.400       .  A
C297        S302   1.808       .  S
C298        C299   1.416       .  A
C298        H303   1.081       .  S
C299        C300   1.417       .  A
C300        S304   1.805       .  S
C301        C306   1.407       .  A
C301        C310   1.409       .  A
S302        H318   1.406       .  S
S304        H315   1.407       .  S
C306        C307   1.402       .  A
C306        S311   1.808       .  S
C307        C308   1.409       .  A
C307        H312   1.083       .  S
C308        C309   1.414       .  A
C309        C310   1.416       .  A
C309        S313   1.804       .  S
C310        H314   1.083       .  S
S311        H316   1.407       .  S
S313        H317   1.407       .  S
C319        C320   1.411       .  A
C319        C324   1.423       .  A
C319        H329   1.082       .  S
C320        C325   1.509       .  S
C320        C321   1.407       .  A
C321        C322   1.407       .  A
C321        S326   1.807       .  S
C322        C323   1.415       .  A
C322        H327   1.082       .  S
C323        C324   1.421       .  A
C324        S328   1.805       .  S
C325        C330   1.410       .  A
C325        C334   1.411       .  A
S326        H342   1.406       .  S
S328        H339   1.407       .  S
C330        C331   1.409       .  A
C330        S335   1.807       .  S
C331        C332   1.411       .  A
C331        H336   1.082       .  S
C332        C333   1.418       .  A
C333        C334   1.417       .  A
C333        S337   1.797       .  S
C334        H338   1.083       .  S
S335        H340   1.407       .  S
S337        H341   1.405       .  S
C343        C344   1.405       .  A
C343        C348   1.409       .  A
C343        H353   1.083       .  S
C344        C349   1.492       .  S
C344        C345   1.410       .  A
C345        C346   1.403       .  A
C345        S350   1.809       .  S
C346        C347   1.408       .  A
C346        H351   1.082       .  S
C347        C348   1.418       .  A
C348        S352   1.807       .  S
C349        C354   1.416       .  A
C349        C358   1.397       .  A
S350        H366   1.407       .  S
S352        H363   1.407       .  S
C354        C355   1.407       .  A
C354        S359   1.801       .  S
C355        C356   1.406       .  A
C355        H360   1.083       .  S
C356        C357   1.423       .  A
C357        C358   1.400       .  A
C357        S361   1.808       .  S
C358        H362   1.083       .  S
S359        H364   1.405       .  S
S361        H365   1.407       .  S
C367        C368   1.407       .  A
C367        C372   1.409       .  A
C367        H377   1.083       .  S
C368        C373   1.489       .  S
C368        C369   1.408       .  A
C369        C370   1.403       .  A
C369        S374   1.807       .  S
C370        C371   1.408       .  A
C370        H375   1.083       .  S
C371        C372   1.412       .  A
C372        S376   1.806       .  S
C373        C378   1.417       .  A
C373        C382   1.401       .  A
S374        H390   1.406       .  S
S376        H387   1.407       .  S
C378        C379   1.402       .  A
C378        S383   1.793       .  S
C379        C380   1.398       .  A
C379        H384   1.084       .  S
C380        C381   1.415       .  A
C381        C382   1.401       .  A
C381        S385   1.809       .  S
C382        H386   1.083       .  S
S383        H388   1.400       .  S
S385        H389   1.406       .  S
C391        C392   1.407       .  A
C391        C396   1.413       .  A
C391        H401   1.083       .  S
C392        C397   1.480       .  S
C392        C393   1.406       .  A
C393        C394   1.394       .  A
C393        S398   1.810       .  S
C394        C395   1.407       .  A
C394        H399   1.082       .  S
C395        C396   1.412       .  A
C396        S400   1.802       .  S
C397        C402   1.402       .  A
C397        C406   1.405       .  A
S398        H414   1.407       .  S
S400        H411   1.406       .  S
C402        C403   1.396       .  A
C402        S407   1.808       .  S
C403        C404   1.410       .  A
C403        H408   1.081       .  S
C404        C405   1.416       .  A
C405        C406   1.410       .  A
C405        S409   1.805       .  S
C406        H410   1.081       .  S
S407        H412   1.406       .  S
S409        H413   1.406       .  S
C415        C416   1.396       .  A
C415        C420   1.401       .  A
C415        H425   1.083       .  S
C416        C421   1.505       .  S
C416        C417   1.418       .  A
C417        C418   1.415       .  A
C417        S422   1.802       .  S
C418        C419   1.406       .  A
C418        H423   1.082       .  S
C419        C420   1.434       .  A
C420        S424   1.815       .  S
C421        C426   1.418       .  A
C421        C430   1.396       .  A
S422        H438   1.406       .  S
S424        H435   1.407       .  S
C426        C427   1.415       .  A
C426        S431   1.801       .  S
C427        C428   1.406       .  A
C427        H432   1.082       .  S
C428        C429   1.430       .  A
C429        C430   1.402       .  A
C429        S433   1.811       .  S
C430        H434   1.083       .  S
S431        H436   1.406       .  S
S433        H437   1.408   1_556  S
C439        C440   1.394       .  A
C439        C444   1.399       .  A
C439        H449   1.083       .  S
C440        C445   1.494       .  S
C440        C441   1.415       .  A
C441        C442   1.408       .  A
C441        S446   1.798       .  S
C442        C443   1.408       .  A
C442        H447   1.083       .  S
C443        C444   1.432       .  A
C444        S448   1.811       .  S
C445        C450   1.407       .  A
C445        C454   1.410       .  A
S446        H462   1.406       .  S
S448        H459   1.406       .  S
C450        C451   1.398       .  A
C450        S455   1.810       .  S
C451        C452   1.413       .  A
C451        H456   1.082       .  S
C452        C453   1.416       .  A
C453        C454   1.414       .  A
C453        S457   1.805       .  S
C454        H458   1.082       .  S
S455        H460   1.406       .  S
S457        H461   1.407       .  S
C463        C464   1.396       .  A
C463        C468   1.397       .  A
C463        H473   1.083       .  S
C464        C469   1.484       .  S
C464        C465   1.413       .  A
C465        C466   1.411       .  A
C465        S470   1.804       .  S
C466        C467   1.405       .  A
C466        H471   1.082       .  S
C467        C468   1.417       .  A
C468        S472   1.808       .  S
C469        C474   1.412       .  A
C469        C478   1.393       .  A
S470        H486   1.407   1_655  S
S472        H483   1.406       .  S
C474        C475   1.410       .  A
C474        S479   1.803       .  S
C475        C476   1.405       .  A
C475        H480   1.082       .  S
C476        C477   1.428       .  A
C477        C478   1.397       .  A
C477        S481   1.809       .  S
C478        H482   1.083       .  S
S479        H484   1.406       .  S
S481        H485   1.407       .  S
C487        C488   1.406       .  A
C487        C492   1.412       .  A
C487        H497   1.083       .  S
C488        C493   1.486       .  S
C488        C489   1.408       .  A
C489        C490   1.398       .  A
C489        S494   1.808       .  S
C490        C491   1.406       .  A
C490        H495   1.083       .  S
C491        C492   1.414       .  A
C492        S496   1.805       .  S
C493        C498   1.412       .  A
C493        C502   1.392       .  A
S494        H510   1.407       .  S
S496        H507   1.407       .  S
C498        C499   1.411       .  A
C498        S503   1.803       .  S
C499        C500   1.405       .  A
C499        H504   1.082       .  S
C500        C501   1.431       .  A
C501        C502   1.398       .  A
C501        S505   1.811       .  S
C502        H506   1.083       .  S
S503        H508   1.406       .  S
S505        H509   1.407       .  S
C511        C512   1.416       .  A
C511        C516   1.416       .  A
C511        H521   1.076       .  S
C512        C517   1.514       .  S
C512        C513   1.418       .  A
C513        C514   1.397       .  A
C513        S518   1.807       .  S
C514        C515   1.398       .  A
C514        H519   1.072       .  S
C515        C516   1.409       .  A
C516        S520   1.801       .  S
C517        C522   1.420       .  A
C517        C526   1.412       .  A
S518        H534   1.406       .  S
S520        H531   1.407       .  S
C522        C523   1.404       .  A
C522        S527   1.810       .  S
C523        C524   1.400       .  A
C523        H528   1.083       .  S
C524        C525   1.413       .  A
C525        C526   1.409       .  A
C525        S529   1.801   1_655  S
C526        H530   1.081       .  S
S527        H532   1.407       .  S
S529        H533   1.404   1_455  S
C535        C536   1.404       .  A
C535        C540   1.409       .  A
C535        H545   1.082       .  S
C536        C541   1.482       .  S
C536        C537   1.406       .  A
C537        C538   1.398       .  A
C537        S542   1.809       .  S
C538        C539   1.409       .  A
C538        H543   1.082       .  S
C539        C540   1.416       .  A
C540        S544   1.805       .  S
C541        C546   1.408       .  A
C541        C550   1.406       .  A
S542        H558   1.407       .  S
S544        H555   1.406       .  S
C546        C547   1.393       .  A
C546        S551   1.808       .  S
C547        C548   1.411       .  A
C547        H552   1.083       .  S
C548        C549   1.417       .  A
C549        C550   1.412       .  A
C549        S553   1.806       .  S
C550        H554   1.083       .  S
S551        H556   1.401       .  S
S553        H557   1.407       .  S
C559        C560   1.399       .  A
C559        C564   1.397       .  A
C559        H569   1.083       .  S
C560        C565   1.482       .  S
C560        C561   1.409       .  A
C561        C562   1.404       .  A
C561        S566   1.794       .  S
C562        C563   1.403       .  A
C562        H567   1.083       .  S
C563        C564   1.414       .  A
C564        S568   1.807       .  S
C565        C570   1.405       .  A
C565        C574   1.407       .  A
S566        H582   1.407       .  S
S568        H579   1.407       .  S
C570        C571   1.390       .  A
C570        S575   1.810       .  S
C571        C572   1.408       .  A
C571        H576   1.080       .  S
C572        C573   1.415       .  A
C573        C574   1.410       .  A
C573        S577   1.806       .  S
C574        H578   1.080       .  S
S575        H580   1.406       .  S
S577        H581   1.407       .  S
C583        C584   1.410       .  A
C583        C588   1.414       .  A
C583        H593   1.082       .  S
C584        C589   1.508       .  S
C584        C585   1.412       .  A
C585        C586   1.408       .  A
C585        S590   1.807       .  S
C586        C587   1.411       .  A
C586        H591   1.083   1_556  S
C587        C588   1.414       .  A
C588        S592   1.805       .  S
C589        C594   1.413       .  A
C589        C598   1.411       .  A
S590        H606   1.407   1_556  S
S592        H603   1.407       .  S
C594        C595   1.405       .  A
C594        S599   1.810       .  S
C595        C596   1.410       .  A
C595        H600   1.082       .  S
C596        C597   1.416       .  A
C597        C598   1.417       .  A
C597        S601   1.802       .  S
C598        H602   1.083       .  S
S599        H604   1.407       .  S
S601        H605   1.407       .  S
C607        C608   1.407       .  A
C607        C612   1.411       .  A
C607        H617   1.082       .  S
C608        C613   1.493       .  S
C608        C609   1.407       .  A
C609        C610   1.405       .  A
C609        S614   1.805       .  S
C610        C611   1.410       .  A
C610        H615   1.083       .  S
C611        C612   1.413       .  A
C612        S616   1.805       .  S
C613        C618   1.410       .  A
C613        C622   1.406       .  A
S614        H630   1.407   1_554  S
S616        H627   1.407       .  S
C618        C619   1.405       .  A
C618        S623   1.807       .  S
C619        C620   1.406       .  A
C619        H624   1.084       .  S
C620        C621   1.415       .  A
C621        C622   1.408       .  A
C621        S625   1.801       .  S
C622        H626   1.083       .  S
S623        H628   1.408       .  S
S625        H629   1.404       .  S
C631        C632   1.398       .  A
C631        C636   1.398       .  A
C631        H641   1.083       .  S
C632        C637   1.481       .  S
C632        C633   1.408       .  A
C633        C634   1.408       .  A
C633        S638   1.798       .  S
C634        C635   1.404       .  A
C634        H639   1.082       .  S
C635        C636   1.414       .  A
C636        S640   1.808       .  S
C637        C642   1.409       .  A
C637        C646   1.403       .  A
S638        H654   1.407       .  S
S640        H651   1.407       .  S
C642        C643   1.398       .  A
C642        S647   1.805       .  S
C643        C644   1.408       .  A
C643        H648   1.084       .  S
C644        C645   1.417       .  A
C645        C646   1.407       .  A
C645        S649   1.807       .  S
C646        H650   1.083       .  S
S647        H652   1.403       .  S
S649        H653   1.407       .  S
C655        C656   1.399       .  A
C655        C660   1.408       .  A
C655        H665   1.082       .  S
C656        C661   1.508       .  S
C656        C657   1.420       .  A
C657        C658   1.414       .  A
C657        S662   1.800       .  S
C658        C659   1.407       .  A
C658        H663   1.083       .  S
C659        C660   1.428       .  A
C660        S664   1.811       .  S
C661        C666   1.415       .  A
C661        C670   1.411       .  A
S662        H678   1.406       .  S
S664        H675   1.406       .  S
C666        C667   1.410       .  A
C666        S671   1.808       .  S
C667        C668   1.407       .  A
C667        H672   1.083       .  S
C668        C669   1.411       .  A
C669        C670   1.415       .  A
C669        S673   1.804       .  S
C670        H674   1.083       .  S
S671        H676   1.407       .  S
S673        H677   1.407       .  S
C679        C680   1.399       .  A
C679        C684   1.400       .  A
C679        H689   1.083       .  S
C680        C685   1.495       .  S
C680        C681   1.414       .  A
C681        C682   1.419       .  A
C681        S686   1.804       .  S
C682        C683   1.408       .  A
C682        H687   1.082       .  S
C683        C684   1.418       .  A
C684        S688   1.810       .  S
C685        C690   1.414       .  A
C685        C694   1.389       .  A
S686        H702   1.405       .  S
S688        H699   1.407       .  S
C690        C691   1.420       .  A
C690        S695   1.801       .  S
C691        C692   1.409       .  A
C691        H696   1.082       .  S
C692        C693   1.435       .  A
C693        C694   1.398       .  A
C693        S697   1.813   1_455  S
C694        H698   1.081       .  S
S695        H700   1.406       .  S
S697        H701   1.406   1_655  S
C703        C704   1.410       .  A
C703        C708   1.409       .  A
C703        H713   1.084       .  S
C704        C709   1.501       .  S
C704        C705   1.411       .  A
C705        C706   1.405       .  A
C705        S710   1.807       .  S
C706        C707   1.410       .  A
C706        H711   1.083       .  S
C707        C708   1.413       .  A
C708        S712   1.798       .  S
C709        C714   1.412       .  A
C709        C718   1.410       .  A
S710        H726   1.406   1_455  S
S712        H723   1.405       .  S
C714        C715   1.403       .  A
C714        S719   1.809       .  S
C715        C716   1.407       .  A
C715        H720   1.083       .  S
C716        C717   1.413       .  A
C717        C718   1.414       .  A
C717        S721   1.804       .  S
C718        H722   1.083       .  S
S719        H724   1.407       .  S
S721        H725   1.407       .  S
C727        C728   1.407       .  A
C727        C732   1.412       .  A
C727        H737   1.082       .  S
C728        C733   1.493       .  S
C728        C729   1.408       .  A
C729        C730   1.400       .  A
C729        S734   1.810       .  S
C730        C731   1.411       .  A
C730        H735   1.082       .  S
C731        C732   1.417       .  A
C732        S736   1.806       .  S
C733        C738   1.415       .  A
C733        C742   1.397       .  A
S734        H750   1.407       .  S
S736        H747   1.407       .  S
C738        C739   1.407       .  A
C738        S743   1.802       .  S
C739        C740   1.406       .  A
C739        H744   1.083       .  S
C740        C741   1.427       .  A
C741        C742   1.403       .  A
C741        S745   1.813       .  S
C742        H746   1.082       .  S
S743        H748   1.406       .  S
S745        H749   1.406       .  S
