geometry optimzed in LAMMPS
_audit_creation_date              2020-12-01 
_audit_creation_method            'lammps2cif' 
_symmetry_space_group_name_H-M    'P1' 
_symmetry_Int_Tables_number       1 
_symmetry_cell_setting            triclinic 
loop_ 
_symmetry_equiv_pos_as_xyz 
  x,y,z 
_cell_length_a                    37.96460887 
_cell_length_b                    37.9652107836589 
_cell_length_c                    25.580965371257804 
_cell_angle_alpha                 90.00054877675551 
_cell_angle_beta                  90.00014724325257 
_cell_angle_gamma                 89.99695374979845 
loop_ 
_atom_site_label 
_atom_site_type_symbol 
_atom_site_fract_x 
_atom_site_fract_y 
_atom_site_fract_z 
_atom_site_charge 
C1          C  0.49701817  0.33303273  0.04738846     0.03600
C2          C  0.49997441  0.35163323  0.00027567    -0.12600
C3          C  0.00476624  0.33292202  0.95273863     0.01100
C4          C  0.00616361  0.29608382  0.95336317    -0.11100
C5          C  0.00001398  0.27698098  0.99970318     0.03600
C6          C  0.49541453  0.29621908  0.04689964    -0.10500
H7          H  0.49998531  0.38017359  0.00029685     0.09200
H8          H  0.01175232  0.28277716  0.91694774     0.06700
H9          H  0.49074314  0.28321839  0.08376929     0.06500
C10         C  0.32617516  0.01098958  0.95564055     0.03600
C11         C  0.34453425  0.00716202  0.00285582    -0.12600
C12         C  0.32574297  0.00322303  0.04966518     0.01100
C13         C  0.28892963  0.00167763  0.04875895    -0.11100
C14         C  0.26991954  0.00711340  0.00209730     0.03600
C15         C  0.28932765  0.01242360  0.95577631    -0.10500
H16         H  0.37307200  0.00721484  0.00316112     0.09200
H17         H  0.27569565  0.99641539  0.08527652     0.06700
H18         H  0.27637658  0.01752992  0.91898294     0.06500
C19         C  0.42421199  0.26048603  0.54775362     0.03600
C20         C  0.46104499  0.26209922  0.54708808    -0.12600
C21         C  0.48020183  0.25744959  0.50032968     0.01100
C22         C  0.46085907  0.25271545  0.45379468    -0.11100
C23         C  0.42402474  0.25404445  0.45353037     0.03600
C24         C  0.40554169  0.25717172  0.50073536    -0.10500
H25         H  0.47412870  0.26690226  0.58385889     0.09200
H26         H  0.47379874  0.24802829  0.41687760     0.06700
H27         H  0.37700140  0.25707007  0.50087324     0.06500
C28         C  0.25388109  0.43170006  0.54418361     0.03600
C29         C  0.24987816  0.41308774  0.49720528    -0.12600
C30         C  0.24592620  0.43162041  0.45015318     0.01100
C31         C  0.24444107  0.46844061  0.45060401    -0.11100
C32         C  0.24998739  0.48764828  0.49702602     0.03600
C33         C  0.25544194  0.46852465  0.54355200    -0.10500
H34         H  0.24986409  0.38454846  0.49725823     0.09200
H35         H  0.23920268  0.48156693  0.41396814     0.06700
H36         H  0.26070760  0.48172657  0.58012113     0.06500
C37         C  0.25382527  0.08291076  0.45573039     0.03600
C38         C  0.25535549  0.04608229  0.45631469    -0.12600
C39         C  0.24999057  0.02694169  0.50284639     0.01100
C40         C  0.24452534  0.04614847  0.54928984    -0.11100
C41         C  0.24600934  0.08296748  0.54974877     0.03600
C42         C  0.24990659  0.10151408  0.50271600    -0.10500
H43         H  0.26056374  0.03290427  0.41971853     0.09200
H44         H  0.23931219  0.03303299  0.58593520     0.06700
H45         H  0.24990365  0.13005467  0.50268171     0.06500
C46         C  0.07579029  0.25276458  0.54618833     0.03600
C47         C  0.03897007  0.25139508  0.54582114    -0.12600
C48         C  0.01974682  0.25744570  0.49958950     0.01100
C49         C  0.03878521  0.26340163  0.45312399    -0.11100
C50         C  0.07560631  0.26176661  0.45234530     0.03600
C51         C  0.09426462  0.25718469  0.49917236    -0.10500
H52         H  0.02580682  0.24589951  0.58237283     0.09200
H53         H  0.02547613  0.26899362  0.41672256     0.06700
H54         H  0.12280628  0.25709168  0.49903305     0.06500
C55         C  0.36055689  0.04383764  0.82586400     0.03600
C56         C  0.36962330  0.01168990  0.80182525    -0.12600
C57         C  0.36409271  0.48033630  0.82289455     0.01100
C58         C  0.35200677  0.48094554  0.87480059    -0.11100
C59         C  0.34455473  0.01177418  0.90495271     0.03600
C60         C  0.34796910  0.04352532  0.87756194    -0.10500
H61         H  0.37876717  0.01160665  0.76171225     0.09200
H62         H  0.34799348  0.45650025  0.89588162     0.06700
H63         H  0.34004191  0.06785488  0.89634788     0.06500
O64         O  0.40183313  0.15560110  0.81549353    -0.71300
O65         O  0.31353021  0.14339534  0.74737884    -0.71500
O66         O  0.35196507  0.10596392  0.81653010    -0.71400
O67         O  0.36403149  0.19363142  0.74644912    -0.71400
O68         O  0.39008909  0.16653986  0.68252972    -0.71400
O69         O  0.37817643  0.07901178  0.75261634    -0.71400
O70         O  0.34002814  0.11666430  0.68351777    -0.71300
O71         O  0.42817230  0.12883499  0.75151279    -0.71500
V72         V  0.35829508  0.14917657  0.78014666     1.35200
V73         V  0.38354504  0.12332491  0.71874018     1.35200
C74         C  0.42998743  0.14380844  0.79558281     0.77900
C75         C  0.31170850  0.12775859  0.70375846     0.78000
C76         C  0.36358706  0.07760932  0.79703700     0.77800
C77         C  0.37936187  0.19507667  0.70254912     0.77800
O78         O  0.37114476  0.32949123  0.74919199    -0.71300
O79         O  0.35892029  0.41779803  0.81682464    -0.71500
O80         O  0.32150952  0.37969181  0.74753641    -0.71400
O81         O  0.40866229  0.36757451  0.81849186    -0.71400
O82         O  0.43603581  0.39344425  0.75466474    -0.71400
O83         O  0.34875962  0.40577300  0.68378101    -0.71400
O84         O  0.38600022  0.44411945  0.75312337    -0.71300
O85         O  0.39820215  0.35569817  0.68537100    -0.71500
V86         V  0.36562649  0.37420468  0.78182210     1.35200
V87         V  0.39178191  0.39930207  0.72056039     1.35200
C88         C  0.38626137  0.32758592  0.70522227     0.77900
C89         C  0.37013093  0.44605475  0.79654008     0.78000
C90         C  0.32030818  0.39429141  0.70311552     0.77800
C91         C  0.43729004  0.37814530  0.79859475     0.77800
C92         C  0.03737544  0.36680247  0.82226686     0.03600
C93         C  0.03726020  0.35413284  0.87397415    -0.12600
C94         C  0.00563263  0.35101701  0.90179648     0.01100
C95         C  0.47164750  0.35969898  0.87756481    -0.11100
C96         C  0.47131110  0.37196499  0.82569182     0.03600
C97         C  0.00512452  0.37595670  0.79853436    -0.10500
H98         H  0.06164049  0.34611019  0.89251631     0.09200
H99         H  0.44710208  0.35550578  0.89829352     0.06700
H100        H  0.00483419  0.38507552  0.75841283     0.06500
O101        O  0.10998171  0.34713347  0.67927322    -0.71300
O102        O  0.12207965  0.43496646  0.74838072    -0.71500
O103        O  0.15970681  0.39734612  0.67862673    -0.71400
O104        O  0.07234466  0.38481792  0.74897398    -0.71400
O105        O  0.09948805  0.35836941  0.81249412    -0.71400
O106        O  0.18692236  0.37100867  0.74218878    -0.71400
O107        O  0.14902520  0.40830869  0.81190361    -0.71300
O108        O  0.13687894  0.32047504  0.74284803    -0.71500
V109        V  0.11659007  0.39050525  0.71498842     1.35200
V110        V  0.14260657  0.36500742  0.77602321     1.35200
C111        C  0.12113340  0.31877614  0.69933539     0.77900
C112        C  0.13712111  0.43654213  0.79245138     0.78000
C113        C  0.18826851  0.38654650  0.69845143     0.77800
C114        C  0.07106407  0.36999736  0.79324041     0.77800
C115        C  0.46397287  0.14709514  0.82362448     0.03600
C116        C  0.99448347  0.13847313  0.79868041    -0.12600
C117        C  0.02655111  0.14260532  0.82564763     0.01100
C118        C  0.02595394  0.15463382  0.87756771    -0.11100
C119        C  0.99413566  0.16340677  0.90194126     0.03600
C120        C  0.46448626  0.15956176  0.87531621    -0.10500
H121        H  0.99471029  0.12935970  0.75855496     0.09200
H122        H  0.05041320  0.15860406  0.89863219     0.06700
H123        H  0.44019846  0.16716284  0.89452548     0.06500
O124        O  0.06267589  0.12097869  0.75560626    -0.71300
O125        O  0.15102197  0.10879158  0.68772577    -0.71500
O126        O  0.11322446  0.07086130  0.75678372    -0.71400
O127        O  0.10106772  0.15830450  0.68639644    -0.71400
O128        O  0.12719688  0.18545051  0.75020446    -0.71400
O129        O  0.13920025  0.09806006  0.82068080    -0.71400
O130        O  0.17731749  0.13570575  0.75160266    -0.71300
O131        O  0.08907201  0.14786124  0.81942554    -0.71500
V132        V  0.10745257  0.11521212  0.72295506     1.35200
V133        V  0.13262483  0.14120997  0.78429801     1.33600
C134        C  0.06079880  0.13668372  0.79915983     0.77900
C135        C  0.17916390  0.12065445  0.70758213     0.78000
C136        C  0.12856430  0.06948798  0.80066408     0.77800
C137        C  0.11264885  0.18670942  0.70573634     0.77800
C138        C  0.13477252  0.03540818  0.82758363     0.03600
C139        C  0.13043970  0.00318247  0.80102445    -0.12600
C140        C  0.14037547  0.47032777  0.82105565     0.01100
C141        C  0.15280187  0.47053184  0.87284902    -0.11100
C142        C  0.15606691  0.00326272  0.90385883     0.03600
C143        C  0.14728900  0.03504491  0.87929550    -0.10500
H144        H  0.12106460  0.00319514  0.76103111     0.09200
H145        H  0.16039652  0.44614143  0.89176397     0.06700
H146        H  0.15150265  0.05958452  0.90003741     0.06500
C147        C  0.11504663  0.28455900  0.67292963     0.03600
C148        C  0.10294472  0.28387596  0.62106203    -0.12600
C149        C  0.09397759  0.25200248  0.59699556     0.01100
C150        C  0.09701806  0.22041341  0.62488793    -0.11100
C151        C  0.10968254  0.22033564  0.67656878     0.03600
C152        C  0.11898615  0.25256276  0.70015817    -0.10500
H153        H  0.09908292  0.30828998  0.59983894     0.09200
H154        H  0.08889677  0.19603582  0.60643044     0.06700
H155        H  0.12813139  0.25285992  0.74026863     0.06500
C156        C  0.21313167  0.11735372  0.67942009     0.03600
C157        C  0.24528276  0.12624699  0.70372027    -0.12600
C158        C  0.27748860  0.12185534  0.67709015     0.01100
C159        C  0.27704356  0.10964458  0.62522496    -0.11100
C160        C  0.24525709  0.10111542  0.60057617     0.03600
C161        C  0.21351498  0.10466151  0.62780047    -0.10500
H162        H  0.24532822  0.13545632  0.74379797     0.09200
H163        H  0.30155010  0.10544101  0.60438756     0.06700
H164        H  0.18919983  0.09690362  0.60881396     0.06500
C165        C  0.28661827  0.39750491  0.67420193     0.03600
C166        C  0.25445984  0.38848788  0.69821184    -0.12600
C167        C  0.22232159  0.39271977  0.67149977     0.01100
C168        C  0.22277956  0.40498109  0.61966070    -0.11100
C169        C  0.25462208  0.41361568  0.59511526     0.03600
C170        C  0.28636388  0.41016636  0.62253866    -0.10500
H171        H  0.25434376  0.37927442  0.73829161     0.09200
H172        H  0.19826721  0.40909751  0.59880187     0.06700
H173        H  0.31072589  0.41800454  0.60376820     0.06500
C174        C  0.38959775  0.29355609  0.67719726     0.03600
C175        C  0.38079229  0.26146973  0.70172308    -0.12600
C176        C  0.38535421  0.22915649  0.67543828     0.01100
C177        C  0.39776264  0.22942616  0.62363764    -0.11100
C178        C  0.40611960  0.26118421  0.59868016     0.03600
C179        C  0.40229414  0.29302764  0.62558967    -0.10500
H180        H  0.37151329  0.26156733  0.74176300     0.09200
H181        H  0.40214422  0.20484834  0.60307623     0.06700
H182        H  0.40990434  0.31731802  0.60640356     0.06500
C183        C  0.17429200  0.00400110  0.95466784     0.03600
C184        C  0.21114363  0.00248268  0.95517574    -0.12600
C185        C  0.23032718  0.00730529  0.00184236     0.01100
C186        C  0.21109016  0.01234648  0.04837312    -0.11100
C187        C  0.17427375  0.01096965  0.04882120     0.03600
C188        C  0.15570760  0.00750839  0.00174266    -0.10500
H189        H  0.22426662  0.99762259  0.91844350     0.09200
H190        H  0.22414789  0.01726715  0.08513622     0.06700
H191        H  0.12716827  0.00753747  0.00173741     0.06500
C192        C  0.00488311  0.18150679  0.04658791     0.03600
C193        C  0.00628917  0.21834790  0.04599832    -0.12600
C194        C  0.99998113  0.23747616  0.99972682     0.01100
C195        C  0.99365494  0.21835047  0.95346182    -0.11100
C196        C  0.99507380  0.18151423  0.95286292     0.03600
C197        C  0.99997490  0.16294966  0.99972233    -0.10500
H198        H  0.01200291  0.23163743  0.08238683     0.09200
H199        H  0.98793538  0.23163815  0.91707468     0.06700
H200        H  0.99998236  0.13441082  0.99971490     0.06500
C201        C  0.02693115  0.37214487  0.17349868     0.03600
C202        C  0.02626093  0.36007616  0.12160370    -0.12600
C203        C  0.49649018  0.35114283  0.09824731     0.01100
C204        C  0.46473951  0.35465079  0.12543431    -0.11100
C205        C  0.46432170  0.36718441  0.17709147     0.03600
C206        C  0.49641658  0.37610806  0.20143229    -0.10500
H207        H  0.05068640  0.35620325  0.10040997     0.09200
H208        H  0.44042853  0.34693712  0.10639167     0.06700
H209        H  0.49637845  0.38527706  0.24153251     0.06500
O210        O  0.06303222  0.39380121  0.24348129    -0.71300
O211        O  0.15126063  0.40581674  0.31165639    -0.71500
O212        O  0.11353769  0.44394551  0.24272923    -0.71400
O213        O  0.10130195  0.35629964  0.31250118    -0.71400
O214        O  0.12741791  0.32928317  0.24856194    -0.71400
O215        O  0.13969548  0.41695506  0.17880136    -0.71400
O216        O  0.17765205  0.37897875  0.24779640    -0.71300
O217        O  0.08949885  0.36717931  0.17948232    -0.71500
V218        V  0.10775173  0.39949310  0.27625588     1.35200
V219        V  0.13300494  0.37366165  0.21483166     1.35200
C220        C  0.06119444  0.37820167  0.19984845     0.77900
C221        C  0.17942449  0.39393315  0.29190694     0.78000
C222        C  0.12894795  0.44546303  0.19892113     0.77800
C223        C  0.11278400  0.32791250  0.29296845     0.77800
O224        O  0.39026910  0.34798235  0.31839862    -0.71300
O225        O  0.37844564  0.43529362  0.24755032    -0.71500
O226        O  0.34021578  0.39784794  0.31681753    -0.71400
O227        O  0.42850208  0.38549020  0.24922538    -0.71400
O228        O  0.40224431  0.35848750  0.18539383    -0.71400
O229        O  0.31383983  0.37092320  0.25302464    -0.71400
O230        O  0.35237076  0.40810401  0.18374036    -0.71300
O231        O  0.36428849  0.32072709  0.25456249    -0.71500
V232        V  0.38379920  0.39108926  0.28180953     1.35200
V233        V  0.35865276  0.36503456  0.22050043     1.35200
C234        C  0.37949369  0.31940535  0.29855640     0.77900
C235        C  0.36388609  0.43654276  0.20308301     0.78000
C236        C  0.31193764  0.38668258  0.29653284     0.77800
C237        C  0.43036415  0.37040332  0.20523946     0.77800
C238        C  0.36431809  0.03468974  0.17725544     0.03600
C239        C  0.36830185  0.00254838  0.20412903    -0.12600
C240        C  0.36068805  0.47024732  0.17407443     0.01100
C241        C  0.34800357  0.47042782  0.12239543    -0.11100
C242        C  0.34361739  0.00245862  0.10072926     0.03600
C243        C  0.35228020  0.03423289  0.12530282    -0.10500
H244        H  0.37736674  0.00262876  0.24428015     0.09200
H245        H  0.34016730  0.44603997  0.10370444     0.06700
H246        H  0.34837807  0.05872792  0.10430205     0.06500
O247        O  0.37140805  0.18525521  0.25180146    -0.71300
O248        O  0.35933512  0.09719150  0.18360336    -0.71500
O249        O  0.32183226  0.13507413  0.25292700    -0.71400
O250        O  0.40907369  0.14735787  0.18239764    -0.71400
O251        O  0.43636864  0.12130299  0.24613515    -0.71400
O252        O  0.34896635  0.10886098  0.31668022    -0.71400
O253        O  0.38628032  0.07067484  0.24725885    -0.71300
O254        O  0.39839467  0.15891621  0.31557571    -0.71500
V255        V  0.36599086  0.14065803  0.21887891     1.35200
V256        V  0.39204929  0.11540208  0.28009496     1.35200
C257        C  0.38638820  0.18704970  0.29587673     0.77900
C258        C  0.37045589  0.06887590  0.20378672     0.78000
C259        C  0.32055148  0.12036821  0.29725327     0.77800
C260        C  0.43766648  0.13664241  0.20223359     0.77800
C261        C  0.14049968  0.04376269  0.17883495     0.03600
C262        C  0.15279528  0.04342214  0.12700611    -0.12600
C263        C  0.15617491  0.01168092  0.09970017     0.01100
C264        C  0.14756934  0.48013754  0.12049201    -0.11100
C265        C  0.13503797  0.47963427  0.17217161     0.03600
C266        C  0.13168606  0.01164966  0.20318064    -0.10500
H267        H  0.16047056  0.06774989  0.10798491     0.09200
H268        H  0.15190764  0.45564128  0.09968758     0.06700
H269        H  0.12272186  0.01159838  0.24338281     0.06500
C270        C  0.03776056  0.14749693  0.17684061     0.03600
C271        C  0.03756397  0.16011928  0.12510714    -0.12600
C272        C  0.00585850  0.16338348  0.09750176     0.01100
C273        C  0.47192986  0.15487561  0.12309962    -0.11100
C274        C  0.47167214  0.14264344  0.17499104     0.03600
C275        C  0.00553493  0.13853152  0.20080222    -0.10500
H276        H  0.06192837  0.16802594  0.10641368     0.09200
H277        H  0.44735018  0.15917325  0.10250312     0.06700
H278        H  0.00531086  0.12945229  0.24094555     0.06500
O279        O  0.11017749  0.16738313  0.31962140    -0.71300
O280        O  0.12237966  0.07934061  0.25129567    -0.71500
O281        O  0.15990843  0.11717127  0.32087356    -0.71400
O282        O  0.07270224  0.12949844  0.25010975    -0.71400
O283        O  0.09992561  0.15574447  0.18648094    -0.71400
O284        O  0.18724789  0.14327741  0.25722180    -0.71400
O285        O  0.14942471  0.10575990  0.18764576    -0.71300
O286        O  0.13718680  0.19387062  0.25599961    -0.71500
V287        V  0.11686626  0.12390649  0.28429308     1.35200
V288        V  0.14298628  0.14919811  0.22316853     1.35200
C289        C  0.12130182  0.19569499  0.29939996     0.77900
C290        C  0.13742737  0.07761302  0.20725851     0.78000
C291        C  0.18850828  0.12788642  0.30108377     0.77800
C292        C  0.07147041  0.14422539  0.20577648     0.77800
C293        C  0.28680296  0.11708266  0.32593580     0.03600
C294        C  0.25469580  0.12599504  0.30169069    -0.12600
C295        C  0.22250024  0.12178540  0.32824026     0.01100
C296        C  0.22284755  0.10961033  0.38012768    -0.11100
C297        C  0.25464181  0.10101782  0.40484578     0.03600
C298        C  0.28644336  0.10448596  0.37761258    -0.10500
H299        H  0.25467059  0.13514355  0.26157833     0.09200
H300        H  0.19829243  0.10548784  0.40086814     0.06700
H301        H  0.31077096  0.09670414  0.39653891     0.06500
C302        C  0.10960110  0.29420272  0.32192193     0.03600
C303        C  0.09674698  0.29409200  0.37351313    -0.12600
C304        C  0.09363498  0.26250455  0.40137961     0.01100
C305        C  0.10273062  0.23065127  0.37737901    -0.11100
C306        C  0.11500521  0.22996545  0.32558740     0.03600
C307        C  0.11896123  0.26196947  0.29834506    -0.10500
H308        H  0.08861960  0.31846493  0.39197916     0.09200
H309        H  0.09890303  0.20624706  0.39863945     0.06700
H310        H  0.12825462  0.26168230  0.25831111     0.06500
C311        C  0.38527556  0.28538138  0.32588031     0.03600
C312        C  0.39754159  0.28511239  0.37774267    -0.12600
C313        C  0.40577011  0.25333439  0.40276095     0.01100
C314        C  0.40199772  0.22149027  0.37582558    -0.11100
C315        C  0.38948491  0.22099778  0.32412908     0.03600
C316        C  0.38071605  0.25307896  0.29960859    -0.10500
H317        H  0.40197165  0.30969658  0.39826355     0.09200
H318        H  0.40960666  0.19719275  0.39499354     0.06700
H319        H  0.37157073  0.25299233  0.25949600     0.06500
C320        C  0.27766575  0.39263234  0.32300637     0.03600
C321        C  0.24552414  0.38818254  0.29622581    -0.12600
C322        C  0.21332070  0.39714125  0.32030802     0.01100
C323        C  0.21358478  0.40988209  0.37192017    -0.11100
C324        C  0.24526538  0.41346284  0.39930944     0.03600
C325        C  0.27710660  0.40493337  0.37481848    -0.10500
H326        H  0.24566482  0.37891915  0.25617571     0.09200
H327        H  0.18922737  0.41767051  0.39076027     0.06700
H328        H  0.30156866  0.40916910  0.39575647     0.06500
C329        C  0.49501478  0.83311817  0.04655096     0.03600
C330        C  0.50004086  0.85166859  0.99971154    -0.12600
C331        C  0.00307452  0.83325222  0.95309129     0.01100
C332        C  0.00468021  0.79643646  0.95356367    -0.11100
C333        C  0.99998607  0.77720138  0.00020054     0.03600
C334        C  0.49367589  0.79626693  0.04597660    -0.10500
H335        H  0.50004103  0.88020845  0.99970534     0.09200
H336        H  0.00945956  0.78343521  0.91672065     0.06700
H337        H  0.48794818  0.78297074  0.08235467     0.06500
C338        C  0.32561930  0.51203920  0.95036603     0.03600
C339        C  0.34441428  0.50743864  0.99706760    -0.12600
C340        C  0.32607228  0.50292496  0.04419109     0.01100
C341        C  0.28923280  0.50142535  0.04399991    -0.11100
C342        C  0.26988081  0.50745351  0.99785803     0.03600
C343        C  0.28881396  0.51362184  0.95136449    -0.10500
H344        H  0.37295257  0.50739418  0.99674867     0.09200
H345        H  0.27616489  0.49587052  0.08059239     0.06700
H346        H  0.27544456  0.51930860  0.91506322     0.06500
C347        C  0.42430148  0.76237726  0.54608898     0.03600
C348        C  0.46112275  0.76369723  0.54569586    -0.12600
C349        C  0.48030453  0.75715600  0.49959604     0.01100
C350        C  0.46131269  0.75070380  0.45325520    -0.11100
C351        C  0.42448962  0.75226878  0.45243818     0.03600
C352        C  0.40583842  0.75739799  0.49916639    -0.10500
H353        H  0.47437332  0.76946714  0.58210187     0.09200
H354        H  0.47471354  0.74484304  0.41700460     0.06700
H355        H  0.37729802  0.75748335  0.49902325     0.06500
C356        C  0.25412798  0.93152828  0.55022433     0.03600
C357        C  0.25005070  0.91282631  0.50335900    -0.12600
C358        C  0.24605870  0.93127967  0.45625841     0.01100
C359        C  0.24457421  0.96811441  0.45660465    -0.11100
C360        C  0.25010135  0.98739914  0.50296890     0.03600
C361        C  0.25570179  0.96833746  0.54949550    -0.10500
H362        H  0.25000950  0.88428739  0.50353677     0.09200
H363        H  0.23930203  0.98118510  0.41994217     0.06700
H364        H  0.26104381  0.98156446  0.58601039     0.06500
C365        C  0.25422088  0.58305587  0.44967772     0.03600
C366        C  0.25578345  0.54624464  0.45039768    -0.12600
C367        C  0.25009407  0.52718316  0.49690148     0.01100
C368        C  0.24447714  0.54645267  0.54325663    -0.11100
C369        C  0.24600996  0.58328293  0.54365016     0.03600
C370        C  0.25009897  0.60174480  0.49656097    -0.10500
H371        H  0.26114663  0.53300559  0.41389184     0.09200
H372        H  0.23913851  0.53335973  0.57989109     0.06700
H373        H  0.25007982  0.63028404  0.49640283     0.06500
C374        C  0.07583837  0.75420842  0.54776132     0.03600
C375        C  0.03900585  0.75259646  0.54711166    -0.12600
C376        C  0.01983513  0.75709135  0.50032710     0.01100
C377        C  0.03918605  0.76168650  0.45376541    -0.11100
C378        C  0.07602082  0.76041915  0.45351965     0.03600
C379        C  0.09450775  0.75742640  0.50073394    -0.10500
H380        H  0.02595095  0.74787764  0.58392336     0.09200
H381        H  0.02627164  0.76626524  0.41680859     0.06700
H382        H  0.12304906  0.75755025  0.50087127     0.06500
C383        C  0.35937572  0.54463716  0.81996148     0.03600
C384        C  0.36830088  0.51242138  0.79593320    -0.12600
C385        C  0.36554796  0.97952581  0.82860026     0.01100
C386        C  0.35331028  0.97995737  0.88044448    -0.11100
C387        C  0.34344491  0.51278874  0.89924983     0.03600
C388        C  0.34678056  0.54444428  0.87167938    -0.10500
H389        H  0.37744108  0.51222628  0.75582233     0.09200
H390        H  0.34921902  0.95543839  0.90128936     0.06700
H391        H  0.33902689  0.56881899  0.89048999     0.06500
O392        O  0.40036557  0.65653124  0.81217962    -0.71300
O393        O  0.31308992  0.64419620  0.74135253    -0.71500
O394        O  0.35076549  0.60666078  0.81095952    -0.71400
O395        O  0.36314187  0.69469093  0.74256814    -0.71400
O396        O  0.39012121  0.66816992  0.67894353    -0.71400
O397        O  0.37783678  0.58012790  0.74744122    -0.71400
O398        O  0.34037198  0.61798185  0.67773932    -0.71300
O399        O  0.42760309  0.63024971  0.74859735    -0.71500
V400        V  0.35731943  0.65005852  0.77542408     1.35200
V401        V  0.38342776  0.62469843  0.71434996     1.35200
C402        C  0.42881085  0.64489947  0.79299802     0.77900
C403        C  0.31178776  0.62872608  0.69756476     0.78000
C404        C  0.36268472  0.57845849  0.79142548     0.77800
C405        C  0.37891849  0.69648154  0.69909237     0.77800
O406        O  0.37285764  0.82968760  0.75032369    -0.71300
O407        O  0.36112687  0.91685202  0.82160010    -0.71500
O408        O  0.32279595  0.87948694  0.75242745    -0.71400
O409        O  0.41117383  0.86697287  0.81967459    -0.71400
O410        O  0.43747980  0.89408605  0.75598716    -0.71400
O411        O  0.34900600  0.90651058  0.68857466    -0.71400
O412        O  0.38694458  0.94418774  0.75768772    -0.71300
O413        O  0.39895518  0.85698934  0.68663657    -0.71500
V414        V  0.36756076  0.87380845  0.78482909     1.35200
V415        V  0.39264120  0.89996578  0.72355229     1.35200
C416        C  0.38736676  0.82853815  0.70581041     0.77900
C417        C  0.37170901  0.94546531  0.80164564     0.78000
C418        C  0.32088973  0.89461887  0.70847960     0.77800
C419        C  0.43941596  0.87821890  0.79940499     0.77800
C420        C  0.03590310  0.86757610  0.82354060     0.03600
C421        C  0.03545209  0.85511464  0.87524663    -0.12600
C422        C  0.00364969  0.85137574  0.90224926     0.01100
C423        C  0.47428571  0.86019699  0.87769625    -0.11100
C424        C  0.47368056  0.87218822  0.82576828     0.03600
C425        C  0.00379732  0.87620933  0.79900233    -0.10500
H426        H  0.05976983  0.84758806  0.89443480     0.09200
H427        H  0.44983249  0.85636158  0.89883240     0.06700
H428        H  0.00386108  0.88532010  0.75887317     0.06500
O429        O  0.10990510  0.84804395  0.68258599    -0.71300
O430        O  0.12177962  0.93567831  0.75224821    -0.71500
O431        O  0.16001954  0.89784881  0.68356763    -0.71400
O432        O  0.07173533  0.88585098  0.75136774    -0.71400
O433        O  0.09802436  0.85911863  0.81542198    -0.71400
O434        O  0.18642156  0.87131109  0.74769507    -0.71400
O435        O  0.14783007  0.90884524  0.81641619    -0.71300
O436        O  0.13594930  0.82102633  0.74658603    -0.71500
V437        V  0.11642470  0.89128908  0.71864337     1.35200
V438        V  0.14159398  0.86554100  0.78021814     1.35200
C439        C  0.12065347  0.81954038  0.70264837     0.77900
C440        C  0.13634004  0.93718269  0.79666479     0.78000
C441        C  0.18831826  0.88687179  0.70403863     0.77800
C442        C  0.06988573  0.87089651  0.79546399     0.77800
C443        C  0.46245158  0.64788655  0.82222258     0.03600
C444        C  0.99664306  0.63836812  0.79914840    -0.12600
C445        C  0.02886431  0.64270984  0.82574242     0.01100
C446        C  0.02846142  0.65498569  0.87760462    -0.11100
C447        C  0.99660790  0.66337982  0.90230800     0.03600
C448        C  0.46255208  0.66051285  0.87396731    -0.10500
H449        H  0.99664465  0.62918450  0.75905485     0.09200
H450        H  0.05298459  0.65925405  0.89835949     0.06700
H451        H  0.43818427  0.66865007  0.89243543     0.06500
O452        O  0.06419372  0.62122228  0.75483769    -0.71300
O453        O  0.15139769  0.60889845  0.68385286    -0.71500
O454        O  0.11429393  0.57065947  0.75355436    -0.71400
O455        O  0.10191188  0.65892006  0.68536732    -0.71400
O456        O  0.12897402  0.68524609  0.74908039    -0.71400
O457        O  0.14139922  0.59714503  0.81708378    -0.71400
O458        O  0.17869193  0.63514824  0.74741293    -0.71300
O459        O  0.09153970  0.64725017  0.81855022    -0.71500
V460        V  0.10842453  0.61537871  0.72072784     1.35200
V461        V  0.13459167  0.64062732  0.78184308     1.33600
C462        C  0.06291953  0.63658842  0.79870220     0.77900
C463        C  0.17984755  0.62050368  0.70300337     0.78000
C464        C  0.13014527  0.56884688  0.79700879     0.77800
C465        C  0.11381839  0.68707421  0.70514828     0.77800
C466        C  0.13604571  0.53464559  0.82364814     0.03600
C467        C  0.13169209  0.50253460  0.79685693    -0.12600
C468        C  0.13955661  0.97105962  0.82516288     0.01100
C469        C  0.15243279  0.97147319  0.87668468    -0.11100
C470        C  0.15635232  0.50223062  0.90025673     0.03600
C471        C  0.14807953  0.53409324  0.87559695    -0.10500
H472        H  0.12265165  0.50269799  0.75669092     0.09200
H473        H  0.16033955  0.94716660  0.89555664     0.06700
H474        H  0.15228383  0.55856635  0.89651943     0.06500
C475        C  0.11469912  0.78547537  0.67548800     0.03600
C476        C  0.10231361  0.78523454  0.62366724    -0.12600
C477        C  0.09393492  0.75349325  0.59867744     0.01100
C478        C  0.09772966  0.72163699  0.62555599    -0.11100
C479        C  0.11042923  0.72108945  0.67714961     0.03600
C480        C  0.11923815  0.75315756  0.70172626    -0.10500
H481        H  0.09795036  0.80982176  0.60312151     0.09200
H482        H  0.09011107  0.69735324  0.60635488     0.06700
H483        H  0.12850953  0.75304400  0.74177298     0.06500
C484        C  0.21346200  0.61741585  0.67383542     0.03600
C485        C  0.24564748  0.62654583  0.69762828    -0.12600
C486        C  0.27772289  0.62250236  0.67068985     0.01100
C487        C  0.27717755  0.61029603  0.61882708    -0.11100
C488        C  0.24529995  0.60150588  0.59448442     0.03600
C489        C  0.21361902  0.60479711  0.62213502    -0.10500
H490        H  0.24583767  0.63570416  0.73773466     0.09200
H491        H  0.30165551  0.60628306  0.59783651     0.06700
H492        H  0.18923814  0.59684199  0.60352992     0.06500
C493        C  0.28691626  0.89785148  0.68032480     0.03600
C494        C  0.25475792  0.88881572  0.70450978    -0.12600
C495        C  0.22259730  0.89285613  0.67760568     0.01100
C496        C  0.22311198  0.90483418  0.62564002    -0.11100
C497        C  0.25489213  0.91357112  0.60117657     0.03600
C498        C  0.28657113  0.91042074  0.62864743    -0.10500
H499        H  0.25466725  0.87972393  0.74464500     0.09200
H500        H  0.19864075  0.90873930  0.60458090     0.06700
H501        H  0.31087552  0.91829748  0.60973843     0.06500
C502        C  0.39032068  0.79495686  0.67648066     0.03600
C503        C  0.38096188  0.76271584  0.69999679    -0.12600
C504        C  0.38495810  0.73073238  0.67276791     0.01100
C505        C  0.39708020  0.73143362  0.62093254    -0.11100
C506        C  0.40611480  0.76328851  0.59690437     0.03600
C507        C  0.40309080  0.79489032  0.62482649    -0.10500
H508        H  0.37177110  0.76238893  0.74008324     0.09200
H509        H  0.40093310  0.70702194  0.59969624     0.06700
H510        H  0.41127680  0.81926492  0.60643111     0.06500
C511        C  0.17440190  0.50292238  0.95118865     0.03600
C512        C  0.21120990  0.50147806  0.95173088    -0.12600
C513        C  0.23036884  0.50724009  0.99811144     0.01100
C514        C  0.21124009  0.51278297  0.04461376    -0.11100
C515        C  0.17439531  0.51123584  0.04516795     0.03600
C516        C  0.15582922  0.50706547  0.99816865    -0.10500
H517        H  0.22440337  0.49612112  0.91517648     0.09200
H518        H  0.22447909  0.51807461  0.08115516     0.06700
H519        H  0.12728907  0.50705393  0.99815537     0.06500
C520        C  0.00301978  0.68156665  0.04740153     0.03600
C521        C  0.00463800  0.71838011  0.04689612    -0.12600
C522        C  0.00003006  0.73759654  0.00022200     0.01100
C523        C  0.99545547  0.71834205  0.95357703    -0.11100
C524        C  0.99707801  0.68152711  0.95314326     0.03600
C525        C  0.00004902  0.66296129  0.00028971    -0.10500
H526        H  0.00932953  0.73139601  0.08375156     0.09200
H527        H  0.99076480  0.73132803  0.91669828     0.06700
H528        H  0.00004662  0.63442151  0.00031655     0.06500
C529        C  0.02849273  0.87183301  0.17492011     0.03600
C530        C  0.02816165  0.85958555  0.12304337    -0.12600
C531        C  0.49395565  0.85127225  0.09744329     0.01100
C532        C  0.46225629  0.85439721  0.12512968    -0.11100
C533        C  0.46206932  0.86697617  0.17689967     0.03600
C534        C  0.49428951  0.87608676  0.20076605    -0.10500
H535        H  0.05271557  0.85519763  0.10242192     0.09200
H536        H  0.43790677  0.84637021  0.10650829     0.06700
H537        H  0.49453988  0.88512914  0.24092728     0.06500
O538        O  0.06384999  0.89318532  0.24593337    -0.71300
O539        O  0.15117538  0.90564034  0.31658467    -0.71500
O540        O  0.11399484  0.94370401  0.24678832    -0.71400
O541        O  0.10170579  0.85563382  0.31556334    -0.71400
O542        O  0.12870022  0.82917054  0.25190585    -0.71400
O543        O  0.14097111  0.91702047  0.18331401    -0.71400
O544        O  0.17835716  0.87925272  0.25303674    -0.71300
O545        O  0.09111873  0.86696806  0.18231700    -0.71500
V546        V  0.10814287  0.89908042  0.27989998     1.35200
V547        V  0.13421651  0.87366869  0.21883925     1.35200
C548        C  0.06253322  0.87777427  0.20210161     0.77900
C549        C  0.17959053  0.89400884  0.29734842     0.78000
C550        C  0.12980191  0.94537787  0.20328050     0.77800
C551        C  0.11367710  0.82745661  0.29594084     0.77800
O552        O  0.38990967  0.84646559  0.31994521    -0.71300
O553        O  0.37753789  0.93471559  0.25224108    -0.71500
O554        O  0.34016060  0.89665308  0.32175347    -0.71400
O555        O  0.42723976  0.88458395  0.25049746    -0.71400
O556        O  0.39992717  0.85851080  0.18679812    -0.71400
O557        O  0.31275530  0.87067549  0.25804624    -0.71400
O558        O  0.35036908  0.90842715  0.18858939    -0.71300
O559        O  0.36282171  0.82011779  0.25626896    -0.71500
V560        V  0.38314354  0.89004059  0.28493158     1.35200
V561        V  0.35693446  0.86489154  0.22376188     1.35200
C562        C  0.37873449  0.81820119  0.29963464     0.77900
C563        C  0.36238418  0.93654004  0.20828871     0.78000
C564        C  0.31153775  0.88599752  0.30196013     0.77800
C565        C  0.42840297  0.87003240  0.20602862     0.77800
C566        C  0.36529699  0.53459469  0.17113729     0.03600
C567        C  0.36959990  0.50248514  0.19798847    -0.12600
C568        C  0.35926061  0.97042732  0.17994023     0.01100
C569        C  0.34680345  0.97075862  0.12818274    -0.11100
C570        C  0.34442360  0.50214140  0.09491169     0.03600
C571        C  0.35304106  0.53402121  0.11932675    -0.10500
H572        H  0.37879128  0.50267871  0.23807779     0.09200
H573        H  0.33898206  0.94644449  0.10925397     0.06700
H574        H  0.34882977  0.55849538  0.09841368     0.06500
O575        O  0.37264465  0.68474092  0.24843300    -0.71300
O576        O  0.36062001  0.59729231  0.17787722    -0.71500
O577        O  0.32246043  0.63499661  0.24697328    -0.71400
O578        O  0.41073921  0.64714447  0.17921368    -0.71400
O579        O  0.43712372  0.62032147  0.24310390    -0.71400
O580        O  0.34876403  0.60801765  0.31078307    -0.71400
O581        O  0.38665447  0.57016991  0.24179661    -0.71300
O582        O  0.39870157  0.65756269  0.31227172    -0.71500
V583        V  0.36717727  0.64048135  0.21429246     1.35200
V584        V  0.39234179  0.61448966  0.27564890     1.35200
C585        C  0.38722747  0.68599911  0.29289507     0.77900
C586        C  0.37133476  0.56874626  0.19792068     0.78000
C587        C  0.32062740  0.61994558  0.29099890     0.77800
C588        C  0.43901594  0.63607503  0.19959847     0.77800
C589        C  0.13942920  0.54402062  0.17477444     0.03600
C590        C  0.15238743  0.54373707  0.12326339    -0.12600
C591        C  0.15619481  0.51198180  0.09600675     0.01100
C592        C  0.14778030  0.97988681  0.12446943    -0.11100
C593        C  0.13580116  0.97948402  0.17646614     0.03600
C594        C  0.13047863  0.51180707  0.19880065    -0.10500
H595        H  0.16019340  0.56810339  0.10447490     0.09200
H596        H  0.15186042  0.95536578  0.10362035     0.06700
H597        H  0.12106364  0.51168568  0.23877184     0.06500
C598        C  0.03555331  0.64731112  0.17717209     0.03600
C599        C  0.03519429  0.65984906  0.12550466    -0.12600
C600        C  0.00347108  0.66346410  0.09827514     0.01100
C601        C  0.47397342  0.65431511  0.12149266    -0.11100
C602        C  0.47329438  0.64225620  0.17338220     0.03600
C603        C  0.00341545  0.63847403  0.20145586    -0.10500
H604        H  0.05953508  0.66749603  0.10648517     0.09200
H605        H  0.44955578  0.65806658  0.10023086     0.06700
H606        H  0.00340880  0.62929620  0.24155187     0.06500
O607        O  0.10973430  0.66660065  0.31835312    -0.71300
O608        O  0.12150475  0.57918490  0.24791138    -0.71500
O609        O  0.15983506  0.61679956  0.31676772    -0.71400
O610        O  0.07140621  0.62900096  0.24937566    -0.71400
O611        O  0.09761686  0.65595031  0.18545594    -0.71400
O612        O  0.18611145  0.64355442  0.25272616    -0.71400
O613        O  0.14744051  0.60625272  0.18386396    -0.71300
O614        O  0.13568056  0.69378590  0.25442133    -0.71500
V615        V  0.11617238  0.62346485  0.28190864     1.35200
V616        V  0.14123827  0.64941725  0.22043263     1.35200
C617        C  0.12051973  0.69514624  0.29846008     0.77900
C618        C  0.13604593  0.57783195  0.20345509     0.78000
C619        C  0.18809052  0.62786178  0.29626320     0.77800
C620        C  0.06951051  0.64405857  0.20535501     0.77800
C621        C  0.28672748  0.61681080  0.31939671     0.03600
C622        C  0.25451704  0.62592154  0.29543763    -0.12600
C623        C  0.22242255  0.62183346  0.32250096     0.01100
C624        C  0.22305479  0.60977120  0.37441674    -0.11100
C625        C  0.25489066  0.60102287  0.39871141     0.03600
C626        C  0.28650459  0.60419387  0.37106562    -0.10500
H627        H  0.25432889  0.63506447  0.25532972     0.09200
H628        H  0.19862926  0.60584211  0.39558394     0.06700
H629        H  0.31085017  0.59627900  0.38982113     0.06500
C630        C  0.11052270  0.79352419  0.32417004     0.03600
C631        C  0.09800073  0.79301181  0.37584927    -0.12600
C632        C  0.09427449  0.76115483  0.40275937     0.01100
C633        C  0.10253317  0.72939457  0.37771318    -0.11100
C634        C  0.11477338  0.72915499  0.32583156     0.03600
C635        C  0.11930399  0.76146169  0.29960394    -0.10500
H636        H  0.09037542  0.81730157  0.39502906     0.09200
H637        H  0.09812996  0.70480115  0.39822151     0.06700
H638        H  0.12844303  0.76156389  0.25949027     0.06500
C639        C  0.38498558  0.78389964  0.32574272     0.03600
C640        C  0.39728638  0.78320088  0.37749891    -0.12600
C641        C  0.40646462  0.75137119  0.40146030     0.01100
C642        C  0.40337544  0.71976890  0.37356588    -0.11100
C643        C  0.39040290  0.71966442  0.32200773     0.03600
C644        C  0.38097615  0.75190768  0.29850458    -0.10500
H645        H  0.40109983  0.80760434  0.39877090     0.09200
H646        H  0.41157745  0.69540131  0.39196782     0.06700
H647        H  0.37163098  0.75222112  0.25849802     0.06500
C648        C  0.27753306  0.89215485  0.32904094     0.03600
C649        C  0.24539915  0.88813959  0.30226405    -0.12600
C650        C  0.21326463  0.89717171  0.32628895     0.01100
C651        C  0.21352814  0.90972962  0.37800257    -0.11100
C652        C  0.24527008  0.91303324  0.40546784     0.03600
C653        C  0.27709886  0.90427635  0.38095338    -0.10500
H654        H  0.24549791  0.87904367  0.26212607     0.09200
H655        H  0.18918214  0.91763320  0.39676032     0.06700
H656        H  0.30162159  0.90829053  0.40182803     0.06500
C657        C  0.99529404  0.33297274  0.04654556     0.03600
C658        C  0.00003195  0.35150774  0.99962020    -0.12600
C659        C  0.50291462  0.33306035  0.95313464     0.01100
C660        C  0.50449741  0.29624436  0.95356618    -0.11100
C661        C  0.49996771  0.27699190  0.00022253     0.03600
C662        C  0.99389064  0.29613135  0.04600766    -0.10500
H663        H  0.00003151  0.38004755  0.99958608     0.09200
H664        H  0.50915709  0.28326224  0.91667429     0.06700
H665        H  0.98830661  0.28285933  0.08245352     0.06500
C666        C  0.82569786  0.01113213  0.95113397     0.03600
C667        C  0.84426397  0.00750796  0.99818271    -0.12600
C668        C  0.82568277  0.00384417  0.04523017     0.01100
C669        C  0.78883528  0.00231163  0.04471603    -0.11100
C670        C  0.76966709  0.00731095  0.99808854     0.03600
C671        C  0.78888419  0.01252998  0.95159462    -0.10500
H672        H  0.87280361  0.00753358  0.99818629     0.09200
H673        H  0.77568378  0.99733795  0.08140565     0.06700
H674        H  0.77579217  0.01756161  0.91487743     0.06500
C675        C  0.92438621  0.26164952  0.54707110     0.03600
C676        C  0.96120718  0.26331169  0.54630847    -0.12600
C677        C  0.98025448  0.25743229  0.49982964     0.01100
C678        C  0.96103949  0.25143264  0.45357798    -0.11100
C679        C  0.92421925  0.25277280  0.45320759     0.03600
C680        C  0.90573521  0.25711241  0.50022908    -0.10500
H681        H  0.97450970  0.26886966  0.58272788     0.09200
H682        H  0.97420822  0.24598782  0.41701361     0.06700
H683        H  0.87719359  0.25700087  0.50036017     0.06500
C684        C  0.75381061  0.43158612  0.54979944     0.03600
C685        C  0.75012344  0.41304718  0.50271711    -0.12600
C686        C  0.74640919  0.43166154  0.45569948     0.01100
C687        C  0.74488939  0.46848951  0.45629493    -0.11100
C688        C  0.75005187  0.48763640  0.50288456     0.03600
C689        C  0.75530158  0.46840397  0.54936915    -0.10500
H690        H  0.75012064  0.38450828  0.50267050     0.09200
H691        H  0.73981366  0.48163971  0.41964600     0.06700
H692        H  0.76037964  0.48147396  0.58607913     0.06500
C693        C  0.75415013  0.08298154  0.45019333     0.03600
C694        C  0.75561917  0.04615607  0.45063419    -0.12600
C695        C  0.75005112  0.02693936  0.49704370     0.01100
C696        C  0.74456055  0.04605862  0.54356571    -0.11100
C697        C  0.74606243  0.08288912  0.54419647     0.03600
C698        C  0.75011553  0.10150723  0.49723488    -0.10500
H699        H  0.76088401  0.03302764  0.41400768     0.09200
H700        H  0.73928575  0.03284557  0.58012294     0.06700
H701        H  0.75011560  0.13004738  0.49729446     0.06500
C702        C  0.57600696  0.25403473  0.54692029     0.03600
C703        C  0.53917414  0.25272254  0.54664318    -0.12600
C704        C  0.51984005  0.25743370  0.50009736     0.01100
C705        C  0.53900558  0.26203208  0.45333733    -0.11100
C706        C  0.57583924  0.26039199  0.45268831     0.03600
C707        C  0.59450173  0.25710497  0.49971919    -0.10500
H708        H  0.52622921  0.24806604  0.58356321     0.09200
H709        H  0.52592691  0.26681510  0.41655517     0.06700
H710        H  0.62304170  0.25698889  0.49959455     0.06500
C711        C  0.85946769  0.04385459  0.82108355     0.03600
C712        C  0.86832343  0.01172257  0.79681936    -0.12600
C713        C  0.86500184  0.47939033  0.82761856     0.01100
C714        C  0.85243646  0.47983147  0.87929354    -0.11100
C715        C  0.84379543  0.01184015  0.90026717     0.03600
C716        C  0.84713956  0.04355853  0.87289579    -0.10500
H717        H  0.87730057  0.01163405  0.75662278     0.09200
H718        H  0.84803161  0.45531367  0.90000127     0.06700
H719        H  0.83942255  0.06789748  0.89185250     0.06500
O720        O  0.90012885  0.15579834  0.81302001    -0.71300
O721        O  0.81272532  0.14330706  0.74257601    -0.71500
O722        O  0.85060614  0.10585623  0.81216316    -0.71400
O723        O  0.86281790  0.19384755  0.74349812    -0.71400
O724        O  0.88977986  0.16726843  0.67991161    -0.71400
O725        O  0.87752532  0.07932761  0.74849203    -0.71400
O726        O  0.83998428  0.11713093  0.67890664    -0.71300
O727        O  0.92727013  0.12940548  0.74944192    -0.71500
V728        V  0.85702981  0.14923598  0.77648316     1.35200
V729        V  0.88306651  0.12384216  0.71536841     1.35200
C730        C  0.92854945  0.14420089  0.79371996     0.77900
C731        C  0.81141346  0.12788510  0.69874393     0.78000
C732        C  0.86253924  0.07767146  0.79258074     0.77800
C733        C  0.87867698  0.19560910  0.70007279     0.77800
O734        O  0.87250807  0.32913147  0.75082857    -0.71300
O735        O  0.86031445  0.41672637  0.82080677    -0.71500
O736        O  0.82225338  0.37882251  0.75187648    -0.71400
O737        O  0.91053190  0.36697609  0.81984336    -0.71400
O738        O  0.93690631  0.39362124  0.75578775    -0.71400
O739        O  0.84853803  0.40574958  0.68800613    -0.71400
O740        O  0.88640338  0.44378086  0.75688099    -0.71300
O741        O  0.89849042  0.35620466  0.68682591    -0.71500
V742        V  0.86696243  0.37347507  0.78466193     1.35200
V743        V  0.89211639  0.39936401  0.72320607     1.35200
C744        C  0.88707023  0.32779722  0.70636915     0.77900
C745        C  0.87104801  0.44525257  0.80073952     0.78000
C746        C  0.82040276  0.39385377  0.70783274     0.77800
C747        C  0.93880964  0.37801595  0.79941068     0.77800
C748        C  0.53563815  0.36728406  0.82349312     0.03600
C749        C  0.53522190  0.35473694  0.87514355    -0.12600
C750        C  0.50346078  0.35120567  0.90230780     0.01100
C751        C  0.97378998  0.35996144  0.87763383    -0.11100
C752        C  0.97310590  0.37199108  0.82571714     0.03600
C753        C  0.50355280  0.37620129  0.79915048    -0.10500
H754        H  0.55953360  0.34701952  0.89418069     0.09200
H755        H  0.94937042  0.35611202  0.89885188     0.06700
H756        H  0.50359530  0.38538123  0.75905491     0.06500
O757        O  0.60949858  0.34800815  0.68209060    -0.71300
O758        O  0.62135929  0.43541585  0.75262716    -0.71500
O759        O  0.65953484  0.39789829  0.68336329    -0.71400
O760        O  0.57135944  0.38557084  0.75127668    -0.71400
O761        O  0.59771695  0.35866610  0.81511243    -0.71400
O762        O  0.68600416  0.37106784  0.74715972    -0.71400
O763        O  0.64753828  0.40833028  0.81644305    -0.71300
O764        O  0.63557637  0.32083494  0.74591821    -0.71500
V765        V  0.61599885  0.39116060  0.71852873     1.35200
V766        V  0.64124321  0.36519860  0.77983802     1.35200
C767        C  0.62030872  0.31945742  0.70197229     0.77900
C768        C  0.63596626  0.43673456  0.79705114     0.78000
C769        C  0.68784620  0.38677279  0.70360416     0.77800
C770        C  0.56956607  0.37052753  0.79530217     0.77800
C771        C  0.96226016  0.14746683  0.82262120     0.03600
C772        C  0.49603512  0.13836467  0.79903223    -0.12600
C773        C  0.52833638  0.14269211  0.82538268     0.01100
C774        C  0.52808898  0.15485839  0.87730613    -0.11100
C775        C  0.49631743  0.16319078  0.90227722     0.03600
C776        C  0.96244499  0.16012989  0.87432733    -0.10500
H777        H  0.49592454  0.12925570  0.75890072     0.09200
H778        H  0.55267350  0.15911665  0.89790396     0.06700
H779        H  0.93807657  0.16804075  0.89300913     0.06500
O780        O  0.56359971  0.12132692  0.75421209    -0.71300
O781        O  0.65094469  0.10883725  0.68351710    -0.71500
O782        O  0.61364331  0.07063923  0.75294821    -0.71400
O783        O  0.60156288  0.15894034  0.68480292    -0.71400
O784        O  0.62858580  0.18521900  0.74859741    -0.71400
O785        O  0.64066897  0.09708291  0.81659357    -0.71400
O786        O  0.67814413  0.13500325  0.74724771    -0.71300
O787        O  0.59095253  0.14729170  0.81797375    -0.71500
V788        V  0.60789334  0.11539658  0.72019126     1.35200
V789        V  0.63401135  0.14058596  0.78140946     1.33600
C790        C  0.56233516  0.13664504  0.79813226     0.77900
C791        C  0.67938133  0.12032835  0.70288762     0.78000
C792        C  0.62950584  0.06879240  0.79638460     0.77800
C793        C  0.61357575  0.18705473  0.70455070     0.77800
C794        C  0.63565179  0.03457861  0.82283317     0.03600
C795        C  0.63170516  0.00246600  0.79587715    -0.12600
C796        C  0.63916195  0.47047941  0.82595146     0.01100
C797        C  0.65182774  0.47071605  0.87763156    -0.11100
C798        C  0.65642373  0.00228255  0.89924809     0.03600
C799        C  0.64768650  0.03407138  0.87477902    -0.10500
H800        H  0.62263020  0.00258680  0.75573073     0.09200
H801        H  0.65961241  0.44633915  0.89640753     0.06700
H802        H  0.65155029  0.05854617  0.89584638     0.06500
C803        C  0.61453409  0.28541464  0.67469029     0.03600
C804        C  0.60234283  0.28513568  0.62278672    -0.12600
C805        C  0.59423604  0.25335092  0.59770616     0.01100
C806        C  0.59805085  0.22150796  0.62461399    -0.11100
C807        C  0.61045169  0.22102145  0.67636637     0.03600
C808        C  0.61908964  0.25311231  0.70097112    -0.10500
H809        H  0.59789686  0.30971580  0.60226187     0.09200
H810        H  0.59054055  0.19720156  0.60538280     0.06700
H811        H  0.62816482  0.25302826  0.74111830     0.06500
C812        C  0.71310462  0.11705657  0.67410149     0.03600
C813        C  0.74522711  0.12600667  0.69826727    -0.12600
C814        C  0.77740035  0.12178747  0.67166442     0.01100
C815        C  0.77702252  0.10959360  0.61979125    -0.11100
C816        C  0.74522341  0.10097728  0.59511906     0.03600
C817        C  0.71343422  0.10443043  0.62242094    -0.10500
H818        H  0.74528540  0.13517523  0.73836857     0.09200
H819        H  0.80156730  0.10548215  0.59901372     0.06700
H820        H  0.68909776  0.09662395  0.60354812     0.06500
C821        C  0.78645535  0.39712793  0.67957584     0.03600
C822        C  0.75426623  0.38823535  0.70375583    -0.12600
C823        C  0.72209417  0.39269761  0.67703937     0.01100
C824        C  0.72261151  0.40496079  0.62520225    -0.11100
C825        C  0.75444348  0.41343422  0.60063808     0.03600
C826        C  0.78614266  0.40983909  0.62796108    -0.10500
H827        H  0.75416548  0.37899406  0.74381552     0.09200
H828        H  0.69813388  0.40921123  0.60430885     0.06700
H829        H  0.81048832  0.41757986  0.60904608     0.06500
C830        C  0.89027369  0.29409443  0.67740946     0.03600
C831        C  0.88094078  0.26186527  0.70100364    -0.12600
C832        C  0.88496445  0.22985175  0.67381635     0.01100
C833        C  0.89728389  0.23051752  0.62204798    -0.11100
C834        C  0.90634299  0.26237423  0.59802135     0.03600
C835        C  0.90315918  0.29397479  0.62583986    -0.10500
H836        H  0.87161997  0.26159006  0.74102431     0.09200
H837        H  0.90116587  0.20610509  0.60083156     0.06700
H838        H  0.91126557  0.31835078  0.60736103     0.06500
C839        C  0.67429662  0.00304586  0.95030222     0.03600
C840        C  0.71110732  0.00148210  0.95122095    -0.12600
C841        C  0.73009972  0.00711334  0.99783632     0.01100
C842        C  0.71070954  0.01261648  0.04411230    -0.11100
C843        C  0.67386623  0.01116195  0.04426028     0.03600
C844        C  0.65550814  0.00715998  0.99707873    -0.10500
H845        H  0.72437400  0.99610001  0.91475533     0.09200
H846        H  0.72369151  0.01784987  0.08085712     0.06700
H847        H  0.62696929  0.00721268  0.99677462     0.06500
C848        C  0.50308680  0.18133209  0.04732118     0.03600
C849        C  0.50465332  0.21814629  0.04685669    -0.12600
C850        C  0.50000598  0.23738273  0.00021157     0.01100
C851        C  0.49538965  0.21813879  0.95356460    -0.11100
C852        C  0.49696966  0.18132228  0.95310822     0.03600
C853        C  0.50003789  0.16274014  0.00021753    -0.10500
H854        H  0.50938451  0.23113816  0.08371734     0.09200
H855        H  0.49065133  0.23112714  0.91670194     0.06700
H856        H  0.50003928  0.13419984  0.00022375     0.06500
C857        C  0.52866368  0.37186033  0.17487618     0.03600
C858        C  0.52830759  0.35962289  0.12298411    -0.12600
C859        C  0.99441774  0.35112740  0.09744123     0.01100
C860        C  0.96278176  0.35428601  0.12524639    -0.11100
C861        C  0.96267494  0.36696026  0.17695351     0.03600
C862        C  0.99491962  0.37610944  0.20067325    -0.10500
H863        H  0.55284588  0.35543611  0.10223054     0.09200
H864        H  0.93839815  0.34626055  0.10671825     0.06700
H865        H  0.99521079  0.38523631  0.24079047     0.06500
O866        O  0.56403862  0.39328476  0.24587055    -0.71300
O867        O  0.65145311  0.40568756  0.31639848    -0.71500
O868        O  0.61408294  0.44395519  0.24711408    -0.71400
O869        O  0.60200338  0.35560310  0.31511398    -0.71400
O870        O  0.62892160  0.32933198  0.25121839    -0.71400
O871        O  0.64110792  0.41757312  0.18341364    -0.71400
O872        O  0.67859938  0.37950569  0.25263374    -0.71300
O873        O  0.59132370  0.36739947  0.18197337    -0.71500
V874        V  0.60836161  0.39917261  0.27980296     1.35200
V875        V  0.63442159  0.37401583  0.21850347     1.35200
C876        C  0.56272049  0.37799339  0.20193669     0.77900
C877        C  0.67987754  0.39418517  0.29699126     0.78000
C878        C  0.62990874  0.44584744  0.20365637     0.77800
C879        C  0.61387810  0.32746719  0.29524706     0.77800
O880        O  0.89025874  0.34715791  0.32008423    -0.71300
O881        O  0.87812510  0.43508784  0.25131128    -0.71500
O882        O  0.84055267  0.39739017  0.32103589    -0.71400
O883        O  0.92780852  0.38490455  0.25037415    -0.71400
O884        O  0.90057094  0.35856559  0.18684304    -0.71400
O885        O  0.81325457  0.37114788  0.25746735    -0.71400
O886        O  0.85107898  0.40854141  0.18778034    -0.71300
O887        O  0.86327819  0.32058522  0.25651026    -0.71500
V888        V  0.88362407  0.39057489  0.28452554     1.35200
V889        V  0.85751802  0.36517579  0.22348539     1.35200
C890        C  0.87906720  0.31883049  0.29998746     0.77900
C891        C  0.86303431  0.43673683  0.20728978     0.78000
C892        C  0.81196317  0.38662534  0.30125360     0.77800
C893        C  0.92902147  0.37014802  0.20605341     0.77800
C894        C  0.86524731  0.03530981  0.17220215     0.03600
C895        C  0.86954904  0.00311184  0.19883753    -0.12600
C896        C  0.85977532  0.47056198  0.17880516     0.01100
C897        C  0.84737812  0.47081913  0.12700783    -0.11100
C898        C  0.84390593  0.00310603  0.09602525     0.03600
C899        C  0.85273632  0.03490183  0.12049655    -0.10500
H900        H  0.87893049  0.00316189  0.23882744     0.09200
H901        H  0.83984695  0.44643959  0.10800528     0.06700
H902        H  0.84855426  0.05942305  0.09969296     0.06500
O903        O  0.87285553  0.18542554  0.24924501    -0.71300
O904        O  0.86078598  0.09796150  0.17900222    -0.71500
O905        O  0.82272967  0.13568342  0.24810523    -0.71400
O906        O  0.91092225  0.14776415  0.18004511    -0.71400
O907        O  0.93737586  0.12098246  0.24390650    -0.71400
O908        O  0.84908681  0.10878981  0.31194547    -0.71400
O909        O  0.88685967  0.07082918  0.24287609    -0.71300
O910        O  0.89899998  0.15833107  0.31309024    -0.71500
V911        V  0.86739398  0.14114763  0.21527605     1.35200
V912        V  0.89262372  0.11520869  0.27662333     1.35200
C913        C  0.88741779  0.18672064  0.29369767     0.77900
C914        C  0.87146788  0.06941254  0.19904015     0.78000
C915        C  0.82092695  0.12066181  0.29215914     0.77800
C916        C  0.93922013  0.13664911  0.20032078     0.77800
C917        C  0.63951560  0.04393014  0.17409920     0.03600
C918        C  0.65213077  0.04366777  0.12241569    -0.12600
C919        C  0.65549223  0.01194475  0.09493777     0.01100
C920        C  0.64801178  0.48065228  0.12528851    -0.11100
C921        C  0.63590287  0.48009807  0.17719367     0.03600
C922        C  0.63040366  0.01176398  0.19804137    -0.10500
H923        H  0.66010201  0.06800801  0.10370494     0.09200
H924        H  0.65209763  0.45618606  0.10429106     0.06700
H925        H  0.62125263  0.01163901  0.23814752     0.06500
C926        C  0.53602862  0.14702088  0.17677388     0.03600
C927        C  0.53552412  0.15955822  0.12512399    -0.12600
C928        C  0.50370743  0.16320972  0.09815471     0.01100
C929        C  0.97404880  0.15459336  0.12188682    -0.11100
C930        C  0.97346242  0.14260239  0.17382295     0.03600
C931        C  0.50396962  0.13823598  0.20132480    -0.10500
H932        H  0.55981280  0.16718113  0.10593876     0.09200
H933        H  0.94958305  0.15853377  0.10082228     0.06700
H934        H  0.50407742  0.12907319  0.24142722     0.06500
O935        O  0.60999195  0.16642981  0.31781723    -0.71300
O936        O  0.62194796  0.07899841  0.24747735    -0.71500
O937        O  0.66011554  0.11662726  0.31657191    -0.71400
O938        O  0.57188099  0.12874176  0.24882743    -0.71400
O939        O  0.59813263  0.15561513  0.18486812    -0.71400
O940        O  0.68651538  0.14345264  0.25271022    -0.71400
O941        O  0.64805310  0.10605071  0.18356344    -0.71300
O942        O  0.63595766  0.19360677  0.25389704    -0.71500
V943        V  0.61655395  0.12326194  0.28147957     1.35200
V944        V  0.64170884  0.14920825  0.22007616     1.35200
C945        C  0.62067806  0.19499323  0.29783771     0.77900
C946        C  0.63648708  0.07766352  0.20301580     0.78000
C947        C  0.68839738  0.12778503  0.29629727     0.77800
C948        C  0.57001526  0.14375464  0.20479313     0.77800
C949        C  0.78698986  0.11739787  0.32043850     0.03600
C950        C  0.75481982  0.12631283  0.29621232    -0.12600
C951        C  0.72263981  0.12191598  0.32290121     0.01100
C952        C  0.72312234  0.10970593  0.37476220    -0.11100
C953        C  0.75491776  0.10115292  0.39936142     0.03600
C954        C  0.78664503  0.10469374  0.37206954    -0.10500
H955        H  0.75473641  0.13552041  0.25613632     0.09200
H956        H  0.69862878  0.10550621  0.39563433     0.06700
H957        H  0.81097322  0.09691194  0.39099900     0.06500
C958        C  0.61052684  0.29344887  0.32329088     0.03600
C959        C  0.59781072  0.29292221  0.37488577    -0.12600
C960        C  0.59394318  0.26107413  0.40177258     0.01100
C961        C  0.60227506  0.22931043  0.37680066    -0.11100
C962        C  0.61470195  0.22904873  0.32501047     0.03600
C963        C  0.61931005  0.26136315  0.29875975    -0.10500
H964        H  0.59021277  0.31721716  0.39407452     0.09200
H965        H  0.59785873  0.20472866  0.39733437     0.06700
H966        H  0.62860360  0.26146370  0.25872585     0.06500
C967        C  0.88512747  0.28459842  0.32637121     0.03600
C968        C  0.89716904  0.28391032  0.37827300    -0.12600
C969        C  0.90604663  0.25203137  0.40239266     0.01100
C970        C  0.90297651  0.22044036  0.37452832    -0.11100
C971        C  0.89039546  0.22036479  0.32280613     0.03600
C972        C  0.88118447  0.25259956  0.29914658    -0.10500
H973        H  0.90104439  0.30832316  0.39949430     0.09200
H974        H  0.91102865  0.19605614  0.39303721     0.06700
H975        H  0.87209310  0.25289696  0.25900970     0.06500
C976        C  0.77793330  0.39275979  0.32829879     0.03600
C977        C  0.74576544  0.38851990  0.30165013    -0.12600
C978        C  0.71361942  0.39746429  0.32576402     0.01100
C979        C  0.71392280  0.41009996  0.37743116    -0.11100
C980        C  0.74568532  0.41356697  0.40478302     0.03600
C981        C  0.77751661  0.40497454  0.38016660    -0.10500
H982        H  0.74584249  0.37933435  0.26155498     0.09200
H983        H  0.68957213  0.41789572  0.39627654     0.06700
H984        H  0.80204390  0.40910250  0.40097881     0.06500
C985        C  0.99687242  0.83325146  0.04729730     0.03600
C986        C  0.99996756  0.85183805  0.00019429    -0.12600
C987        C  0.50504946  0.83310858  0.95287627     0.01100
C988        C  0.50638427  0.79626039  0.95345762    -0.11100
C989        C  0.50002145  0.77713005  0.99971552     0.03600
C990        C  0.99526339  0.79643876  0.04682758    -0.10500
H991        H  0.99997201  0.88037822  0.00019625     0.09200
H992        H  0.51210735  0.78296171  0.91707867     0.06700
H993        H  0.99048698  0.78344118  0.08367375     0.06500
C994        C  0.82566000  0.51093081  0.95472661     0.03600
C995        C  0.84423065  0.50705363  0.00176965    -0.12600
C996        C  0.82565969  0.50320972  0.04879883     0.01100
C997        C  0.78884723  0.50177997  0.04828872    -0.11100
C998        C  0.76965363  0.50723172  0.00183653     0.03600
C999        C  0.78880988  0.51246348  0.95525931    -0.10500
H1000       H  0.87277024  0.50704143  0.00177913     0.09200
H1001       H  0.77571051  0.49660704  0.08493432     0.06700
H1002       H  0.77562080  0.51756842  0.91863305     0.06500
C1003       C  0.92401000  0.76040710  0.54693084     0.03600
C1004       C  0.96084303  0.76165865  0.54667288    -0.12600
C1005       C  0.98018513  0.75710911  0.50009526     0.01100
C1006       C  0.96100582  0.75269006  0.45330323    -0.11100
C1007       C  0.92417260  0.75432413  0.45267234     0.03600
C1008       C  0.90551140  0.75748999  0.49971691    -0.10500
H1009       H  0.97376353  0.76619256  0.58363816     0.09200
H1010       H  0.97405445  0.74800832  0.41647734     0.06700
H1011       H  0.87697182  0.75762537  0.49959353     0.06500
C1012       C  0.75409251  0.93128728  0.54363216     0.03600
C1013       C  0.74993690  0.91282990  0.49655271    -0.12600
C1014       C  0.74574780  0.93152153  0.44968575     0.01100
C1015       C  0.74423090  0.96833892  0.45040794    -0.11100
C1016       C  0.74995133  0.98739823  0.49690767     0.03600
C1017       C  0.75559541  0.96812251  0.54325071    -0.10500
H1018       H  0.74994898  0.88429010  0.49639061     0.09200
H1019       H  0.73885102  0.98158844  0.41391633     0.06700
H1020       H  0.76095348  0.98121746  0.57987416     0.06500
C1021       C  0.75373788  0.58333504  0.45626607     0.03600
C1022       C  0.75525354  0.54650273  0.45660915    -0.12600
C1023       C  0.74994217  0.52719901  0.50302197     0.01100
C1024       C  0.74454658  0.54627390  0.54960147    -0.11100
C1025       C  0.74608502  0.58308405  0.55031264     0.03600
C1026       C  0.74992622  0.60178905  0.50340304    -0.10500
H1027       H  0.76040732  0.53347081  0.41989005     0.09200
H1028       H  0.73935572  0.53308186  0.58618012     0.06700
H1029       H  0.74994335  0.63032748  0.50357790     0.06500
C1030       C  0.57557700  0.75236124  0.54697785     0.03600
C1031       C  0.53875318  0.75077229  0.54618553    -0.12600
C1032       C  0.51974832  0.75717085  0.49984082     0.01100
C1033       C  0.53891767  0.76368642  0.45372426    -0.11100
C1034       C  0.57573796  0.76238660  0.45331575     0.03600
C1035       C  0.59421569  0.75746193  0.50023423    -0.10500
H1036       H  0.52536220  0.74493626  0.58245250     0.09200
H1037       H  0.52565939  0.76942599  0.41731586     0.06700
H1038       H  0.62275672  0.75755964  0.50036143     0.06500
C1039       C  0.86072277  0.54378893  0.82525714     0.03600
C1040       C  0.86962866  0.51160054  0.80111475    -0.12600
C1041       C  0.86423596  0.97958246  0.82360358     0.01100
C1042       C  0.85225240  0.98003121  0.87559041    -0.11100
C1043       C  0.84388073  0.51165892  0.90389666     0.03600
C1044       C  0.84777592  0.54344579  0.87676480    -0.10500
H1045       H  0.87904921  0.51153110  0.76114545     0.09200
H1046       H  0.84820158  0.95552734  0.89649832     0.06700
H1047       H  0.84001959  0.56779785  0.89564053     0.06500
O1048       O  0.90245617  0.65577402  0.81506966    -0.71300
O1049       O  0.81407515  0.64341761  0.74749000    -0.71500
O1050       O  0.85267827  0.60603338  0.81634715    -0.71400
O1051       O  0.86449493  0.69367887  0.74607216    -0.71400
O1052       O  0.89054325  0.66656546  0.68216117    -0.71400
O1053       O  0.87870251  0.57906194  0.75228547    -0.71400
O1054       O  0.84044104  0.61675810  0.68343887    -0.71300
O1055       O  0.92876015  0.62890293  0.75115624    -0.71500
V1056       V  0.85889912  0.64925800  0.77992931     1.35200
V1057       V  0.88405766  0.62338937  0.71845500     1.35200
C1058       C  0.93059000  0.64392510  0.79521094     0.77900
C1059       C  0.81215348  0.62777926  0.70390580     0.78000
C1060       C  0.86411546  0.57764295  0.79669839     0.77800
C1061       C  0.87972521  0.69508808  0.70208504     0.77800
O1062       O  0.87132838  0.82919885  0.74845699    -0.71300
O1063       O  0.85903984  0.91711704  0.81685310    -0.71500
O1064       O  0.82168687  0.87931211  0.74710217    -0.71400
O1065       O  0.90887486  0.86702592  0.81801624    -0.71400
O1066       O  0.93620018  0.89315900  0.75438072    -0.71400
O1067       O  0.84893490  0.90565213  0.68357831    -0.71400
O1068       O  0.88609267  0.94373243  0.75339087    -0.71300
O1069       O  0.89836204  0.85560216  0.68478320    -0.71500
V1070       V  0.86580055  0.87373117  0.78141419     1.35200
V1071       V  0.89193331  0.89907903  0.72035422     1.35200
C1072       C  0.88638714  0.82744342  0.70445552     0.77900
C1073       C  0.87024699  0.94545113  0.79686389     0.78000
C1074       C  0.82049888  0.89403553  0.70275622     0.77800
C1075       C  0.93748462  0.87776471  0.79822588     0.77800
C1076       C  0.53794207  0.86698791  0.82253628     0.03600
C1077       C  0.53776395  0.85437445  0.87428180    -0.12600
C1078       C  0.50607847  0.85124898  0.90197867     0.01100
C1079       C  0.97183591  0.85959707  0.87731921    -0.11100
C1080       C  0.97151857  0.87177236  0.82540935     0.03600
C1081       C  0.50572460  0.87612898  0.79868843    -0.10500
H1082       H  0.56211508  0.84633761  0.89289089     0.09200
H1083       H  0.94727564  0.85525996  0.89794492     0.06700
H1084       H  0.50547225  0.88519825  0.75854176     0.06500
O1085       O  0.61018026  0.84656713  0.67955979    -0.71300
O1086       O  0.62257838  0.93471848  0.74753400    -0.71500
O1087       O  0.65997715  0.89669441  0.67800215    -0.71400
O1088       O  0.57282081  0.88465096  0.74902592    -0.71400
O1089       O  0.60005640  0.85845049  0.81268692    -0.71400
O1090       O  0.68730510  0.87063785  0.74171525    -0.71400
O1091       O  0.64964077  0.90832539  0.81119249    -0.71300
O1092       O  0.63721218  0.82013345  0.74321384    -0.71500
V1093       V  0.61695653  0.89009352  0.71470675     1.35200
V1094       V  0.64308714  0.86484727  0.77586620     1.35200
C1095       C  0.62133317  0.81827640  0.69981832     0.77900
C1096       C  0.63767876  0.93647362  0.79153353     0.78000
C1097       C  0.68857102  0.88599293  0.69783275     0.77800
C1098       C  0.57161193  0.87003820  0.79344475     0.77800
C1099       C  0.96451640  0.64719797  0.82343708     0.03600
C1100       C  0.49469798  0.63859809  0.79858498    -0.12600
C1101       C  0.52668932  0.64239633  0.82587477     0.01100
C1102       C  0.52599364  0.65440548  0.87779287    -0.11100
C1103       C  0.49417225  0.66350604  0.90186823     0.03600
C1104       C  0.96487444  0.65974671  0.87509944    -0.10500
H1105       H  0.49501660  0.62951456  0.75844610     0.09200
H1106       H  0.55040461  0.65814095  0.89907599     0.06700
H1107       H  0.94053388  0.66740007  0.89411315     0.06500
O1108       O  0.56295833  0.62049908  0.75619623    -0.71300
O1109       O  0.65145743  0.60809181  0.68890179    -0.71500
O1110       O  0.61342419  0.57033730  0.75782577    -0.71400
O1111       O  0.60152350  0.65765819  0.68708912    -0.71400
O1112       O  0.62745808  0.68489213  0.75098358    -0.71400
O1113       O  0.63937838  0.59752141  0.82175687    -0.71400
O1114       O  0.67765488  0.63514629  0.75273458    -0.71300
O1115       O  0.58924888  0.64735481  0.82013720    -0.71500
V1116       V  0.60780935  0.61462125  0.72383803     1.35200
V1117       V  0.63287447  0.64066851  0.78522920     1.33600
C1118       C  0.56100018  0.63625937  0.79969225     0.77900
C1119       C  0.67956696  0.62002363  0.70877142     0.78000
C1120       C  0.62868093  0.56895832  0.80175624     0.77800
C1121       C  0.61294536  0.68611255  0.70646999     0.77800
C1122       C  0.63466903  0.53483962  0.82866257     0.03600
C1123       C  0.63029752  0.50269399  0.80192762    -0.12600
C1124       C  0.64079680  0.97032540  0.81997217     0.01100
C1125       C  0.65328870  0.97060914  0.87171320    -0.11100
C1126       C  0.65549891  0.50246084  0.90499612     0.03600
C1127       C  0.64695611  0.53432558  0.88046860    -0.10500
H1128       H  0.62110642  0.50283822  0.76183963     0.09200
H1129       H  0.66116000  0.94628399  0.89056797     0.06700
H1130       H  0.65123682  0.55882228  0.90129123     0.06500
C1131       C  0.61509790  0.78400064  0.67364962     0.03600
C1132       C  0.60276741  0.78331382  0.62191056    -0.12600
C1133       C  0.59362113  0.75147842  0.59793474     0.01100
C1134       C  0.59677041  0.71986836  0.62579480    -0.11100
C1135       C  0.60976193  0.71976436  0.67733844     0.03600
C1136       C  0.61916078  0.75200566  0.70085058    -0.10500
H1137       H  0.59890850  0.80772273  0.60067126     0.09200
H1138       H  0.58858710  0.69549666  0.60738727     0.06700
H1139       H  0.62852278  0.75231425  0.74085035     0.06500
C1140       C  0.71352159  0.61681947  0.68052288     0.03600
C1141       C  0.74571723  0.62587148  0.70458025    -0.12600
C1142       C  0.77784402  0.62177210  0.67758297     0.01100
C1143       C  0.77725670  0.60974171  0.62564592    -0.11100
C1144       C  0.74543302  0.60104038  0.60127847     0.03600
C1145       C  0.71379782  0.60422333  0.62885411    -0.10500
H1146       H  0.74586347  0.63499896  0.74469627     0.09200
H1147       H  0.80169800  0.60580155  0.60452469     0.06700
H1148       H  0.68946575  0.59635050  0.61002237     0.06500
C1149       C  0.78685373  0.89718145  0.67370917     0.03600
C1150       C  0.75470438  0.88811492  0.69765310    -0.12600
C1151       C  0.72259471  0.89213995  0.67082221     0.01100
C1152       C  0.72306080  0.90427477  0.61892072    -0.11100
C1153       C  0.75489638  0.91305353  0.59445461     0.03600
C1154       C  0.78662342  0.90976515  0.62199164    -0.10500
H1155       H  0.75457154  0.87900269  0.73778444     0.09200
H1156       H  0.69855032  0.90827959  0.59801010     0.06700
H1157       H  0.81098015  0.91769263  0.60328935     0.06500
C1158       C  0.88958106  0.79348946  0.67630688     0.03600
C1159       C  0.88093655  0.76142078  0.70096843    -0.12600
C1160       C  0.88547263  0.72911045  0.67474635     0.01100
C1161       C  0.89764919  0.72935194  0.62282751    -0.11100
C1162       C  0.90577998  0.76111652  0.59770745     0.03600
C1163       C  0.90199675  0.79297671  0.62457533    -0.10500
H1164       H  0.87186081  0.76152656  0.74111467     0.09200
H1165       H  0.90207713  0.70476021  0.60232675     0.06700
H1166       H  0.90951683  0.81727316  0.60532551     0.06500
C1167       C  0.67387378  0.50322487  0.95570383     0.03600
C1168       C  0.71071889  0.50173416  0.95586964    -0.12600
C1169       C  0.73010193  0.50744904  0.00209176     0.01100
C1170       C  0.71113752  0.51331447  0.04866297    -0.11100
C1171       C  0.67432725  0.51175915  0.04962761     0.03600
C1172       C  0.65553037  0.50745584  0.00287500    -0.10500
H1173       H  0.72373335  0.49636214  0.91919128     0.09200
H1174       H  0.72445215  0.51881599  0.08505876     0.06700
H1175       H  0.62699106  0.50741831  0.00319265     0.06500
C1176       C  0.50483139  0.68161060  0.04654134     0.03600
C1177       C  0.50616647  0.71846187  0.04600135    -0.12600
C1178       C  0.49999223  0.73761043  0.99970105     0.01100
C1179       C  0.49379644  0.71849278  0.95337857    -0.11100
C1180       C  0.49511940  0.68164333  0.95278298     0.03600
C1181       C  0.49996947  0.66307270  0.99964862    -0.10500
H1182       H  0.51177081  0.73174860  0.08242884     0.09200
H1183       H  0.48819533  0.73180268  0.91696769     0.06700
H1184       H  0.49996678  0.63453338  0.99962657     0.06500
C1185       C  0.52633735  0.87218937  0.17368007     0.03600
C1186       C  0.52574230  0.86022491  0.12174064    -0.12600
C1187       C  0.99633822  0.85137385  0.09813711     0.01100
C1188       C  0.96455216  0.85514840  0.12514670    -0.11100
C1189       C  0.96411537  0.86767842  0.17681227     0.03600
C1190       C  0.99621928  0.87636157  0.20130745    -0.10500
H1191       H  0.55020160  0.85640729  0.10060854     0.09200
H1192       H  0.94023052  0.84760525  0.10598372     0.06700
H1193       H  0.99616032  0.88552730  0.24140799     0.06500
O1194       O  0.56249645  0.89407499  0.24350931    -0.71300
O1195       O  0.65091421  0.90652009  0.31107099    -0.71500
O1196       O  0.61298827  0.94421982  0.24195522    -0.71400
O1197       O  0.60101176  0.85696494  0.31283319    -0.71400
O1198       O  0.62712203  0.82971326  0.24910646    -0.71400
O1199       O  0.63890872  0.91695576  0.17806289    -0.71400
O1200       O  0.67718516  0.87951554  0.24725364    -0.71300
O1201       O  0.58886134  0.86706738  0.17977391    -0.71500
V1202       V  0.60730983  0.89996944  0.27600691     1.35200
V1203       V  0.63244842  0.87387285  0.21472255     1.35200
C1204       C  0.56059466  0.87824872  0.20005577     0.77900
C1205       C  0.67904834  0.89462004  0.29123363     0.78000
C1206       C  0.62827505  0.94554416  0.19804195     0.77800
C1207       C  0.61260179  0.82852907  0.29360790     0.77800
O1208       O  0.89005807  0.84816618  0.31773218    -0.71300
O1209       O  0.87811076  0.93569889  0.24782489    -0.71500
O1210       O  0.83986575  0.89788410  0.31650139    -0.71400
O1211       O  0.92823657  0.88596779  0.24893436    -0.71400
O1212       O  0.90203686  0.85910986  0.18491512    -0.71400
O1213       O  0.81356221  0.87125710  0.25236647    -0.71400
O1214       O  0.85217967  0.90876073  0.18364799    -0.71300
O1215       O  0.86409530  0.82105634  0.25374578    -0.71500
V1216       V  0.88350434  0.89136173  0.28154964     1.35200
V1217       V  0.85843139  0.86551284  0.21998095     1.35200
C1218       C  0.87934922  0.81963338  0.29771899     0.77900
C1219       C  0.86360761  0.93713274  0.20336299     0.78000
C1220       C  0.81160482  0.88684652  0.29599132     0.77800
C1221       C  0.93013579  0.87097015  0.20487574     0.77800
C1222       C  0.86397552  0.53489034  0.17644068     0.03600
C1223       C  0.86839785  0.50274474  0.20311921    -0.12600
C1224       C  0.86039448  0.97097243  0.17478144     0.01100
C1225       C  0.84749854  0.97134029  0.12327055    -0.11100
C1226       C  0.84373293  0.50254583  0.09971708     0.03600
C1227       C  0.85191697  0.53439471  0.12449191    -0.10500
H1228       H  0.87743342  0.50285904  0.24328661     0.09200
H1229       H  0.83955497  0.94702342  0.10446342     0.06700
H1230       H  0.84764083  0.55888993  0.10365622     0.06500
O1231       O  0.87098767  0.68541004  0.25135116    -0.71300
O1232       O  0.85859197  0.59737649  0.18317148    -0.71500
O1233       O  0.82122668  0.63534228  0.25278660    -0.71400
O1234       O  0.90849851  0.64742990  0.18193108    -0.71400
O1235       O  0.93575818  0.62138616  0.24570954    -0.71400
O1236       O  0.84841968  0.60899082  0.31635070    -0.71400
O1237       O  0.88564556  0.57082733  0.24669206    -0.71300
O1238       O  0.89791359  0.65902104  0.31513524    -0.71500
V1239       V  0.86538506  0.64082152  0.21850355     1.35200
V1240       V  0.89145945  0.61551258  0.27965115     1.35200
C1241       C  0.88607361  0.68719919  0.29533902     0.77900
C1242       C  0.86983497  0.56905945  0.20319743     0.78000
C1243       C  0.81999663  0.62062074  0.29713410     0.77800
C1244       C  0.93709569  0.63674825  0.20184489     0.77800
C1245       C  0.64048454  0.54441016  0.17990819     0.03600
C1246       C  0.65304774  0.54416710  0.12818407    -0.12600
C1247       C  0.65648003  0.51248353  0.10072855     0.01100
C1248       C  0.64667309  0.98011313  0.11933907    -0.11100
C1249       C  0.63444431  0.97963071  0.17117743     0.03600
C1250       C  0.63162392  0.51221646  0.20404825    -0.10500
H1251       H  0.66073639  0.56853298  0.10928618     0.09200
H1252       H  0.65072610  0.95561346  0.09842137     0.06700
H1253       H  0.62248987  0.51206800  0.24416320     0.06500
C1254       C  0.53751856  0.64775964  0.17704549     0.03600
C1255       C  0.53742137  0.66040714  0.12530990    -0.12600
C1256       C  0.50579221  0.66343318  0.09742371     0.01100
C1257       C  0.97161230  0.65508569  0.12297113    -0.11100
C1258       C  0.97118840  0.64283031  0.17484726     0.03600
C1259       C  0.50527999  0.63846047  0.20066351    -0.10500
H1260       H  0.56178951  0.66855445  0.10685799     0.09200
H1261       H  0.94709690  0.65934988  0.10219153     0.06700
H1262       H  0.50496248  0.62935602  0.24079235     0.06500
O1263       O  0.60968104  0.66815407  0.32044081    -0.71300
O1264       O  0.62197647  0.58001284  0.25226789    -0.71500
O1265       O  0.65939814  0.61793604  0.32194259    -0.71400
O1266       O  0.57227105  0.63018025  0.25078418    -0.71400
O1267       O  0.59960246  0.65634731  0.18718940    -0.71400
O1268       O  0.68676443  0.64405079  0.25832268    -0.71400
O1269       O  0.64914956  0.60643152  0.18874287    -0.71300
O1270       O  0.63674517  0.69458224  0.25681385    -0.71500
V1271       V  0.61638755  0.62463579  0.28518779     1.35200
V1272       V  0.64258637  0.64989237  0.22410742     1.35200
C1273       C  0.62092901  0.69643269  0.30025567     0.77900
C1274       C  0.63717553  0.57826905  0.20833126     0.78000
C1275       C  0.68801079  0.62864390  0.30216136     0.77800
C1276       C  0.57112882  0.64476919  0.20633341     0.77800
C1277       C  0.78633178  0.61747318  0.32616704     0.03600
C1278       C  0.75415755  0.62652115  0.30226613    -0.12600
C1279       C  0.72205186  0.62246473  0.32913716     0.01100
C1280       C  0.72255632  0.61030973  0.38103202    -0.11100
C1281       C  0.75442511  0.60157461  0.40545238     0.03600
C1282       C  0.78612747  0.60489044  0.37787594    -0.10500
H1283       H  0.75400608  0.63564593  0.26214091     0.09200
H1284       H  0.69806299  0.60627847  0.40197234     0.06700
H1285       H  0.81049890  0.59698513  0.39655885     0.06500
C1286       C  0.60963994  0.79493327  0.32288728     0.03600
C1287       C  0.59694314  0.79487478  0.37457899    -0.12600
C1288       C  0.59390248  0.76327609  0.40248719     0.01100
C1289       C  0.60285967  0.73141410  0.37841980    -0.11100
C1290       C  0.61492186  0.73070125  0.32655127     0.03600
C1291       C  0.61891958  0.76268302  0.29931647    -0.10500
H1292       H  0.58881528  0.81925681  0.39301497     0.09200
H1293       H  0.59900013  0.70700727  0.39966246     0.06700
H1294       H  0.62806106  0.76235083  0.25920395     0.06500
C1295       C  0.88529347  0.78559560  0.32494956     0.03600
C1296       C  0.89771248  0.78536981  0.37675367    -0.12600
C1297       C  0.90606232  0.75362489  0.40176680     0.01100
C1298       C  0.90221356  0.72175988  0.37492289    -0.11100
C1299       C  0.88948417  0.72120703  0.32334801     0.03600
C1300       C  0.88069576  0.75327196  0.29876031    -0.10500
H1301       H  0.90211955  0.80996309  0.39726123     0.09200
H1302       H  0.90981758  0.69747431  0.39413071     0.06700
H1303       H  0.87139976  0.75314989  0.25872611     0.06500
C1304       C  0.77730263  0.89280041  0.32235444     0.03600
C1305       C  0.74516791  0.88875603  0.29539108    -0.12600
C1306       C  0.71299163  0.89781794  0.31950173     0.01100
C1307       C  0.71329912  0.91040363  0.37118871    -0.11100
C1308       C  0.74496342  0.91354739  0.39872503     0.03600
C1309       C  0.77675089  0.90478204  0.37431300    -0.10500
H1310       H  0.74529601  0.87966176  0.25525830     0.09200
H1311       H  0.68898377  0.91830625  0.39004077     0.06700
H1312       H  0.80120881  0.90868128  0.39540776     0.06500
loop_ 
_geom_bond_atom_site_label_1 
_geom_bond_atom_site_label_2 
_geom_bond_distance 
_geom_bond_site_symmetry_2 
_ccdc_geom_bond_type 
C1            C2   1.401       .  A
C1            C6   1.399       .  A
C1          C203   1.472       .  S
C2          C659   1.401   1_554  A
C2            H7   1.084       .  S
C3            C4   1.400       .  A
C3          C658   1.403       .  A
C3           C94   1.474       .  S
C4            C5   1.409       .  A
C4            H8   1.081       .  S
C5          C662   1.409   1_456  A
C5          C194   1.500   1_455  S
C6          C661   1.410       .  A
C6            H9   1.079       .  S
C10          C11   1.402   1_556  A
C10          C15   1.400       .  A
C10          C59   1.473       .  S
C11          C12   1.402       .  A
C11          H16   1.083       .  S
C12          C13   1.399       .  A
C12         C242   1.472       .  S
C13          C14   1.410       .  A
C13          H17   1.079   1_545  S
C14          C15   1.410   1_554  A
C14         C185   1.503       .  S
C15          H18   1.079       .  S
C19          C20   1.400       .  A
C19          C24   1.402       .  A
C19         C178   1.473       .  S
C20          C21   1.411       .  A
C20          H25   1.079       .  S
C21          C22   1.410       .  A
C21         C704   1.505       .  S
C22          C23   1.399       .  A
C22          H26   1.079       .  S
C23          C24   1.402       .  A
C23         C313   1.472       .  S
C24          H27   1.084       .  S
C28          C29   1.402       .  A
C28          C33   1.399       .  A
C28         C169   1.473       .  S
C29          C30   1.402       .  A
C29          H34   1.084       .  S
C30          C31   1.399       .  A
C30         C324   1.472       .  S
C31          C32   1.409       .  A
C31          H35   1.080       .  S
C32          C33   1.409       .  A
C32         C367   1.501       .  S
C33          H36   1.080       .  S
C37          C38   1.399       .  A
C37          C42   1.402       .  A
C37         C297   1.472       .  S
C38          C39   1.409       .  A
C38          H43   1.080       .  S
C39          C40   1.409       .  A
C39         C360   1.501   1_545  S
C40          C41   1.399       .  A
C40          H44   1.080       .  S
C41          C42   1.402       .  A
C41         C160   1.472       .  S
C42          H45   1.084       .  S
C46          C47   1.399       .  A
C46          C51   1.402       .  A
C46         C149   1.472       .  S
C47          C48   1.409       .  A
C47          H52   1.081       .  S
C48          C49   1.409       .  A
C48         C677   1.499   1_455  S
C49          C50   1.399       .  A
C49          H53   1.080       .  S
C50          C51   1.402       .  A
C50         C304   1.473       .  S
C51          H54   1.084       .  S
C55          C56   1.409       .  A
C55          C60   1.406       .  A
C55          C76   1.484       .  S
C56         C385   1.409   1_545  A
C56          H61   1.083       .  S
C57          C58   1.405       .  A
C57         C384   1.409       .  A
C57          C89   1.484       .  S
C58         C387   1.399       .  A
C58          H62   1.084       .  S
C59          C60   1.400       .  A
C59         C386   1.401   1_545  A
C60          H63   1.084       .  S
O64          V72   1.900       .  S
O64          C74   1.266       .  A
O65          V72   1.908       .  S
O65          C75   1.266       .  A
O66          V72   1.901       .  S
O66          C76   1.266       .  A
O67          V72   1.908       .  S
O67          C77   1.266       .  A
O68          V73   1.900       .  S
O68          C77   1.266       .  A
O69          V73   1.903       .  S
O69          C76   1.265       .  A
O70          V73   1.899       .  S
O70          C75   1.265       .  A
O71          V73   1.902       .  S
O71          C74   1.264       .  A
V72          V73   2.086       .  T
C74         C115   1.482       .  S
C75         C158   1.484       .  S
C77         C176   1.486       .  S
O78          V86   1.903       .  S
O78          C88   1.265       .  A
O79          V86   1.899       .  S
O79          C89   1.265       .  A
O80          V86   1.902       .  S
O80          C90   1.265       .  A
O81          V86   1.901       .  S
O81          C91   1.265       .  A
O82          V87   1.906       .  S
O82          C91   1.266       .  A
O83          V87   1.901       .  S
O83          C90   1.265       .  A
O84          V87   1.907       .  S
O84          C89   1.266       .  A
O85          V87   1.900       .  S
O85          C88   1.266       .  A
V86          V87   2.086       .  T
C88         C174   1.483       .  S
C90         C165   1.483       .  S
C91          C96   1.484       .  S
C92          C93   1.407       .  A
C92          C97   1.410       .  A
C92         C114   1.484       .  S
C93          C94   1.401       .  A
C93          H98   1.084       .  S
C94         C751   1.400   1_455  A
C95          C96   1.406       .  A
C95         C750   1.401       .  A
C95          H99   1.084       .  S
C96         C753   1.409       .  A
C97         C752   1.408   1_455  A
C97         H100   1.083       .  S
O101        V109   1.900       .  S
O101        C111   1.266       .  A
O102        V109   1.903       .  S
O102        C112   1.265       .  A
O103        V109   1.901       .  S
O103        C113   1.265       .  A
O104        V109   1.904       .  S
O104        C114   1.265       .  A
O105        V110   1.901       .  S
O105        C114   1.266       .  A
O106        V110   1.906       .  S
O106        C113   1.266       .  A
O107        V110   1.899       .  S
O107        C112   1.265       .  A
O108        V110   1.904       .  S
O108        C111   1.265       .  A
V109        V110   2.086       .  T
C111        C147   1.482       .  S
C112        C140   1.482       .  S
C113        C167   1.484       .  S
C115        C120   1.405       .  A
C115        C772   1.410       .  A
C116        C117   1.408   1_655  A
C116        C771   1.410       .  A
C116        H121   1.083       .  S
C117        C118   1.405       .  A
C117        C134   1.483       .  S
C118        C119   1.400   1_455  A
C118        H122   1.084       .  S
C119        C776   1.401       .  A
C119        C196   1.473       .  S
C120        C775   1.398       .  A
C120        H123   1.084       .  S
O124        V132   1.907       .  S
O124        C134   1.266       .  A
O125        V132   1.899       .  S
O125        C135   1.266       .  A
O126        V132   1.906       .  S
O126        C136   1.266       .  A
O127        V132   1.900       .  S
O127        C137   1.265       .  A
O128        V133   1.904       .  S
O128        C137   1.265       .  A
O129        V133   1.901       .  S
O129        C136   1.266       .  A
O130        V133   1.903       .  S
O130        C135   1.265       .  A
O131        V133   1.899       .  S
O131        C134   1.265       .  A
V132        V133   2.086       .  T
C135        C156   1.482       .  S
C136        C138   1.485       .  S
C137        C151   1.483       .  S
C138        C139   1.409       .  A
C138        C143   1.406       .  A
C139        C468   1.410   1_545  A
C139        H144   1.083       .  S
C140        C141   1.406       .  A
C140        C467   1.410       .  A
C141        C470   1.399       .  A
C141        H145   1.084       .  S
C142        C143   1.401       .  A
C142        C469   1.400   1_545  A
C142        C183   1.473       .  S
C143        H146   1.084       .  S
C147        C148   1.404       .  A
C147        C152   1.408       .  A
C148        C149   1.400       .  A
C148        H153   1.084       .  S
C149        C150   1.400       .  A
C150        C151   1.407       .  A
C150        H154   1.084       .  S
C151        C152   1.409       .  A
C152        H155   1.083       .  S
C156        C157   1.411       .  A
C156        C161   1.406       .  A
C157        C158   1.410       .  A
C157        H162   1.083       .  S
C158        C159   1.406       .  A
C159        C160   1.400       .  A
C159        H163   1.084       .  S
C160        C161   1.398       .  A
C161        H164   1.084       .  S
C165        C166   1.409       .  A
C165        C170   1.406       .  A
C166        C167   1.408       .  A
C166        H171   1.083       .  S
C167        C168   1.406       .  A
C168        C169   1.401       .  A
C168        H172   1.084       .  S
C169        C170   1.401       .  A
C170        H173   1.084       .  S
C174        C175   1.410       .  A
C174        C179   1.406       .  A
C175        C176   1.410       .  A
C175        H180   1.083       .  S
C176        C177   1.406       .  A
C177        C178   1.401       .  A
C177        H181   1.084       .  S
C178        C179   1.399       .  A
C179        H182   1.084       .  S
C183        C184   1.400       .  A
C183        C188   1.402   1_556  A
C184        C185   1.410   1_556  A
C184        H189   1.079   1_545  S
C185        C186   1.410       .  A
C186        C187   1.399       .  A
C186        H190   1.079       .  S
C187        C188   1.402       .  A
C187        C263   1.472       .  S
C188        H191   1.083       .  S
C192        C193   1.400       .  A
C192        C197   1.403   1_454  A
C192        C272   1.473       .  S
C193        C194   1.409   1_454  A
C193        H198   1.081       .  S
C194        C195   1.409       .  A
C195        C196   1.400       .  A
C195        H199   1.081       .  S
C196        C197   1.403       .  A
C197        H200   1.083       .  S
C201        C202   1.405       .  A
C201        C862   1.408   1_455  A
C201        C220   1.483       .  S
C202        C859   1.400   1_455  A
C202        H207   1.084       .  S
C203        C204   1.398       .  A
C203        C858   1.401       .  A
C204        C205   1.405       .  A
C204        H208   1.084       .  S
C205        C206   1.410       .  A
C205        C237   1.482       .  S
C206        C857   1.409       .  A
C206        H209   1.083       .  S
O210        V218   1.906       .  S
O210        C220   1.265       .  A
O211        V218   1.899       .  S
O211        C221   1.266       .  A
O212        V218   1.906       .  S
O212        C222   1.265       .  A
O213        V218   1.900       .  S
O213        C223   1.265       .  A
O214        V219   1.905       .  S
O214        C223   1.266       .  A
O215        V219   1.901       .  S
O215        C222   1.266       .  A
O216        V219   1.904       .  S
O216        C221   1.265       .  A
O217        V219   1.899       .  S
O217        C220   1.265       .  A
V218        V219   2.086       .  T
C221        C322   1.483       .  S
C222        C265   1.485       .  S
C223        C302   1.484       .  S
O224        V232   1.901       .  S
O224        C234   1.266       .  A
O225        V232   1.904       .  S
O225        C235   1.266       .  A
O226        V232   1.899       .  S
O226        C236   1.266       .  A
O227        V232   1.903       .  S
O227        C237   1.265       .  A
O228        V233   1.899       .  S
O228        C237   1.266       .  A
O229        V233   1.907       .  S
O229        C236   1.266       .  A
O230        V233   1.901       .  S
O230        C235   1.266       .  A
O231        V233   1.906       .  S
O231        C234   1.266       .  A
V232        V233   2.086       .  T
C234        C311   1.485       .  S
C235        C240   1.484       .  S
C236        C320   1.484       .  S
C238        C239   1.409       .  A
C238        C243   1.405       .  A
C238        C258   1.483       .  S
C239        C568   1.410   1_545  A
C239        H244   1.083       .  S
C240        C241   1.407       .  A
C240        C567   1.410       .  A
C241        C570   1.401       .  A
C241        H245   1.084       .  S
C242        C243   1.399       .  A
C242        C569   1.399   1_545  A
C243        H246   1.084       .  S
O247        V255   1.902       .  S
O247        C257   1.265       .  A
O248        V255   1.898       .  S
O248        C258   1.265       .  A
O249        V255   1.901       .  S
O249        C259   1.265       .  A
O250        V255   1.900       .  S
O250        C260   1.265       .  A
O251        V256   1.907       .  S
O251        C260   1.266       .  A
O252        V256   1.901       .  S
O252        C259   1.266       .  A
O253        V256   1.907       .  S
O253        C258   1.266       .  A
O254        V256   1.900       .  S
O254        C257   1.266       .  A
V255        V256   2.086       .  T
C257        C315   1.482       .  S
C259        C293   1.482       .  S
C260        C274   1.485       .  S
C261        C262   1.406       .  A
C261        C266   1.409       .  A
C261        C290   1.481       .  S
C262        C263   1.399       .  A
C262        H267   1.084       .  S
C263        C592   1.400   1_545  A
C264        C265   1.405       .  A
C264        C591   1.400       .  A
C264        H268   1.084       .  S
C265        C594   1.409       .  A
C266        C593   1.408   1_545  A
C266        H269   1.083       .  S
C270        C271   1.408       .  A
C270        C275   1.410       .  A
C270        C292   1.484       .  S
C271        C272   1.401       .  A
C271        H276   1.084       .  S
C272        C929   1.400   1_455  A
C273        C274   1.406       .  A
C273        C928   1.401       .  A
C273        H277   1.084       .  S
C274        C931   1.409       .  A
C275        C930   1.408   1_455  A
C275        H278   1.083       .  S
O279        V287   1.899       .  S
O279        C289   1.265       .  A
O280        V287   1.902       .  S
O280        C290   1.265       .  A
O281        V287   1.900       .  S
O281        C291   1.265       .  A
O282        V287   1.903       .  S
O282        C292   1.265       .  A
O283        V288   1.901       .  S
O283        C292   1.266       .  A
O284        V288   1.906       .  S
O284        C291   1.266       .  A
O285        V288   1.899       .  S
O285        C290   1.265       .  A
O286        V288   1.905       .  S
O286        C289   1.265       .  A
V287        V288   2.086       .  T
C289        C306   1.483       .  S
C291        C295   1.484       .  S
C293        C294   1.409       .  A
C293        C298   1.406       .  A
C294        C295   1.407       .  A
C294        H299   1.083       .  S
C295        C296   1.406       .  A
C296        C297   1.401       .  A
C296        H300   1.084       .  S
C297        C298   1.400       .  A
C298        H301   1.084       .  S
C302        C303   1.407       .  A
C302        C307   1.410       .  A
C303        C304   1.400       .  A
C303        H308   1.084       .  S
C304        C305   1.399       .  A
C305        C306   1.405       .  A
C305        H309   1.084       .  S
C306        C307   1.409       .  A
C307        H310   1.083       .  S
C311        C312   1.406       .  A
C311        C316   1.409       .  A
C312        C313   1.401       .  A
C312        H317   1.084       .  S
C313        C314   1.399       .  A
C314        C315   1.405       .  A
C314        H318   1.084       .  S
C315        C316   1.410       .  A
C316        H319   1.083       .  S
C320        C321   1.410       .  A
C320        C325   1.405       .  A
C321        C322   1.411       .  A
C321        H326   1.083       .  S
C322        C323   1.406       .  A
C323        C324   1.399       .  A
C323        H327   1.084       .  S
C324        C325   1.400       .  A
C325        H328   1.084       .  S
C329        C330   1.403   1_554  A
C329        C334   1.400       .  A
C329        C531   1.474       .  S
C330        C987   1.403       .  A
C330        H335   1.084       .  S
C331        C986   1.401   1_456  A
C331        C332   1.399       .  A
C331        C422   1.472       .  S
C332        C333   1.410   1_456  A
C332        H336   1.079       .  S
C333        C990   1.410       .  A
C333        C522   1.504   1_655  S
C334        C989   1.409   1_554  A
C334        H337   1.081       .  S
C338        C339   1.402       .  A
C338        C343   1.399       .  A
C338        C387   1.473       .  S
C339        C340   1.403   1_556  A
C339        H344   1.083       .  S
C340        C341   1.400       .  A
C340        C570   1.473       .  S
C341        C342   1.409   1_554  A
C341        H345   1.080       .  S
C342        C343   1.409       .  A
C342        C513   1.500       .  S
C343        H346   1.080       .  S
C347        C348   1.399       .  A
C347        C352   1.403       .  A
C347        C506   1.472       .  S
C348        C349   1.408       .  A
C348        H353   1.081       .  S
C349        C350   1.409       .  A
C349       C1032   1.497       .  S
C350        C351   1.399       .  A
C350        H354   1.081       .  S
C351        C352   1.403       .  A
C351        C641   1.473       .  S
C352        H355   1.084       .  S
C356        C357   1.402       .  A
C356        C361   1.399       .  A
C356        C497   1.471       .  S
C357        C358   1.402       .  A
C357        H362   1.083       .  S
C358        C359   1.400       .  A
C358        C652   1.473       .  S
C359        C360   1.410       .  A
C359        H363   1.080       .  S
C360        C361   1.409       .  A
C361        H364   1.080       .  S
C365        C366   1.399       .  A
C365        C370   1.402       .  A
C365        C625   1.472       .  S
C366        C367   1.409       .  A
C366        H371   1.080       .  S
C367        C368   1.410       .  A
C368        C369   1.400       .  A
C368        H372   1.080       .  S
C369        C370   1.402       .  A
C369        C488   1.473       .  S
C370        H373   1.084       .  S
C374        C375   1.400       .  A
C374        C379   1.402       .  A
C374        C477   1.473       .  S
C375        C376   1.411       .  A
C375        H380   1.079       .  S
C376        C377   1.410       .  A
C376       C1005   1.505   1_455  S
C377        C378   1.399       .  A
C377        H381   1.079       .  S
C378        C379   1.402       .  A
C378        C632   1.472       .  S
C379        H382   1.084       .  S
C383        C384   1.410       .  A
C383        C388   1.407       .  A
C383        C404   1.482       .  S
C384        H389   1.083       .  S
C385        C386   1.405       .  A
C385        C417   1.484       .  S
C386        H390   1.084       .  S
C387        C388   1.399       .  A
C388        H391   1.084       .  S
O392        V400   1.901       .  S
O392        C402   1.266       .  A
O393        V400   1.905       .  S
O393        C403   1.266       .  A
O394        V400   1.898       .  S
O394        C404   1.265       .  A
O395        V400   1.904       .  S
O395        C405   1.265       .  A
O396        V401   1.900       .  S
O396        C405   1.266       .  A
O397        V401   1.904       .  S
O397        C404   1.265       .  A
O398        V401   1.901       .  S
O398        C403   1.265       .  A
O399        V401   1.904       .  S
O399        C402   1.266       .  A
V400        V401   2.086       .  T
C402        C443   1.484       .  S
C403        C486   1.484       .  S
C405        C504   1.482       .  S
O406        V414   1.904       .  S
O406        C416   1.266       .  A
O407        V414   1.901       .  S
O407        C417   1.266       .  A
O408        V414   1.903       .  S
O408        C418   1.265       .  A
O409        V414   1.898       .  S
O409        C419   1.265       .  A
O410        V415   1.907       .  S
O410        C419   1.266       .  A
O411        V415   1.899       .  S
O411        C418   1.266       .  A
O412        V415   1.905       .  S
O412        C417   1.265       .  A
O413        V415   1.900       .  S
O413        C416   1.265       .  A
V414        V415   2.086       .  T
C416        C502   1.484       .  S
C418        C493   1.482       .  S
C419        C424   1.483       .  S
C420        C421   1.405       .  A
C420        C425   1.410       .  A
C420        C442   1.482       .  S
C421        C422   1.398       .  A
C421        H426   1.084       .  S
C422       C1079   1.401   1_455  A
C423       C1078   1.399       .  A
C423        C424   1.404       .  A
C423        H427   1.084       .  S
C424       C1081   1.408       .  A
C425       C1080   1.409   1_455  A
C425        H428   1.083       .  S
O429        V437   1.899       .  S
O429        C439   1.265       .  A
O430        V437   1.903       .  S
O430        C440   1.265       .  A
O431        V437   1.899       .  S
O431        C441   1.266       .  A
O432        V437   1.903       .  S
O432        C442   1.265       .  A
O433        V438   1.899       .  S
O433        C442   1.266       .  A
O434        V438   1.907       .  S
O434        C441   1.265       .  A
O435        V438   1.902       .  S
O435        C440   1.266       .  A
O436        V438   1.908       .  S
O436        C439   1.266       .  A
V437        V438   2.086       .  T
C439        C475   1.485       .  S
C440        C468   1.483       .  S
C441        C495   1.484       .  S
C443       C1100   1.410       .  A
C443        C448   1.408       .  A
C444       C1099   1.409       .  A
C444        C445   1.409   1_655  A
C444        H449   1.083       .  S
C445        C446   1.406       .  A
C445        C462   1.485       .  S
C446        C447   1.401   1_455  A
C446        H450   1.084       .  S
C447       C1104   1.398       .  A
C447        C524   1.472       .  S
C448       C1103   1.401       .  A
C448        H451   1.084       .  S
O452        V460   1.905       .  S
O452        C462   1.266       .  A
O453        V460   1.901       .  S
O453        C463   1.265       .  A
O454        V460   1.907       .  S
O454        C464   1.266       .  A
O455        V460   1.901       .  S
O455        C465   1.266       .  A
O456        V461   1.902       .  S
O456        C465   1.264       .  A
O457        V461   1.899       .  S
O457        C464   1.265       .  A
O458        V461   1.903       .  S
O458        C463   1.266       .  A
O459        V461   1.902       .  S
O459        C462   1.266       .  A
V460        V461   2.086       .  T
C463        C484   1.483       .  S
C464        C466   1.483       .  S
C465        C479   1.482       .  S
C466        C467   1.408       .  A
C466        C471   1.405       .  A
C467        H472   1.083       .  S
C468        C469   1.406       .  A
C469        H473   1.084       .  S
C470        C471   1.400       .  A
C470        C511   1.472       .  S
C471        H474   1.084       .  S
C475        C476   1.407       .  A
C475        C480   1.409       .  A
C476        C477   1.401       .  A
C476        H481   1.084       .  S
C477        C478   1.399       .  A
C478        C479   1.405       .  A
C478        H482   1.084       .  S
C479        C480   1.410       .  A
C480        H483   1.083       .  S
C484        C485   1.408       .  A
C484        C489   1.407       .  A
C485        C486   1.408       .  A
C485        H490   1.083       .  S
C486        C487   1.405       .  A
C487        C488   1.401       .  A
C487        H491   1.084       .  S
C488        C489   1.401       .  A
C489        H492   1.084       .  S
C493        C494   1.411       .  A
C493        C498   1.406       .  A
C494        C495   1.410       .  A
C494        H499   1.083       .  S
C495        C496   1.405       .  A
C496        C497   1.399       .  A
C496        H500   1.084       .  S
C497        C498   1.398       .  A
C498        H501   1.084       .  S
C502        C503   1.409       .  A
C502        C507   1.407       .  A
C503        C504   1.408       .  A
C503        H508   1.083       .  S
C504        C505   1.404       .  A
C505        C506   1.399       .  A
C505        H509   1.084       .  S
C506        C507   1.401       .  A
C507        H510   1.084       .  S
C511        C512   1.399       .  A
C511        C516   1.402       .  A
C512        C513   1.409       .  A
C512        H517   1.080       .  S
C513        C514   1.410   1_556  A
C514        C515   1.400       .  A
C514        H518   1.080       .  S
C515        C516   1.403   1_554  A
C515        C591   1.473       .  S
C516        H519   1.084       .  S
C520        C521   1.399       .  A
C520        C525   1.401       .  A
C520        C600   1.472       .  S
C521        C522   1.410       .  A
C521        H526   1.079       .  S
C522        C523   1.410   1_454  A
C523        C524   1.399       .  A
C523        H527   1.079       .  S
C524        C525   1.401   1_656  A
C525        H528   1.084       .  S
C529        C530   1.406       .  A
C529       C1190   1.409   1_455  A
C529        C548   1.485       .  S
C530       C1187   1.401   1_455  A
C530        H535   1.084       .  S
C531       C1186   1.399       .  A
C531        C532   1.401       .  A
C532        C533   1.408       .  A
C532        H536   1.084       .  S
C533        C534   1.410       .  A
C533        C565   1.484       .  S
C534       C1185   1.408       .  A
C534        H537   1.083       .  S
O538        V546   1.906       .  S
O538        C548   1.266       .  A
O539        V546   1.900       .  S
O539        C549   1.265       .  A
O540        V546   1.907       .  S
O540        C550   1.266       .  A
O541        V546   1.901       .  S
O541        C551   1.266       .  A
O542        V547   1.901       .  S
O542        C551   1.264       .  A
O543        V547   1.898       .  S
O543        C550   1.265       .  A
O544        V547   1.902       .  S
O544        C549   1.265       .  A
O545        V547   1.901       .  S
O545        C548   1.266       .  A
V546        V547   2.086       .  T
C549        C650   1.482       .  S
C550        C593   1.483       .  S
C551        C630   1.482       .  S
O552        V560   1.899       .  S
O552        C562   1.265       .  A
O553        V560   1.903       .  S
O553        C563   1.265       .  A
O554        V560   1.901       .  S
O554        C564   1.265       .  A
O555        V560   1.903       .  S
O555        C565   1.265       .  A
O556        V561   1.902       .  S
O556        C565   1.266       .  A
O557        V561   1.905       .  S
O557        C564   1.266       .  A
O558        V561   1.898       .  S
O558        C563   1.265       .  A
O559        V561   1.905       .  S
O559        C562   1.265       .  A
V560        V561   2.086       .  T
C562        C639   1.483       .  S
C563        C568   1.482       .  S
C564        C648   1.484       .  S
C566        C567   1.409       .  A
C566        C571   1.405       .  A
C566        C586   1.484       .  S
C567        H572   1.083       .  S
C568        C569   1.406       .  A
C569        H573   1.084       .  S
C570        C571   1.401       .  A
C571        H574   1.084       .  S
O575        V583   1.905       .  S
O575        C585   1.266       .  A
O576        V583   1.902       .  S
O576        C586   1.266       .  A
O577        V583   1.904       .  S
O577        C587   1.265       .  A
O578        V583   1.899       .  S
O578        C588   1.265       .  A
O579        V584   1.906       .  S
O579        C588   1.265       .  A
O580        V584   1.899       .  S
O580        C587   1.266       .  A
O581        V584   1.905       .  S
O581        C586   1.265       .  A
O582        V584   1.900       .  S
O582        C585   1.265       .  A
V583        V584   2.086       .  T
C585        C643   1.484       .  S
C587        C621   1.483       .  S
C588        C602   1.483       .  S
C589        C590   1.407       .  A
C589        C594   1.410       .  A
C589        C618   1.484       .  S
C590        C591   1.400       .  A
C590        H595   1.084       .  S
C592        C593   1.406       .  A
C592        H596   1.084       .  S
C594        H597   1.083       .  S
C598        C599   1.405       .  A
C598        C603   1.410       .  A
C598        C620   1.482       .  S
C599        C600   1.398       .  A
C599        H604   1.084       .  S
C600       C1257   1.401   1_455  A
C601       C1256   1.399       .  A
C601        C602   1.404       .  A
C601        H605   1.084       .  S
C602       C1259   1.408       .  A
C603       C1258   1.410   1_455  A
C603        H606   1.083       .  S
O607        V615   1.900       .  S
O607        C617   1.265       .  A
O608        V615   1.904       .  S
O608        C618   1.265       .  A
O609        V615   1.899       .  S
O609        C619   1.266       .  A
O610        V615   1.904       .  S
O610        C620   1.265       .  A
O611        V616   1.899       .  S
O611        C620   1.266       .  A
O612        V616   1.906       .  S
O612        C619   1.265       .  A
O613        V616   1.902       .  S
O613        C618   1.266       .  A
O614        V616   1.907       .  S
O614        C617   1.266       .  A
V615        V616   2.086       .  T
C617        C634   1.485       .  S
C619        C623   1.484       .  S
C621        C622   1.411       .  A
C621        C626   1.406       .  A
C622        C623   1.410       .  A
C622        H627   1.083       .  S
C623        C624   1.405       .  A
C624        C625   1.399       .  A
C624        H628   1.084       .  S
C625        C626   1.398       .  A
C626        H629   1.084       .  S
C630        C631   1.405       .  A
C630        C635   1.410       .  A
C631        C632   1.399       .  A
C631        H636   1.084       .  S
C632        C633   1.401       .  A
C633        C634   1.406       .  A
C633        H637   1.084       .  S
C634        C635   1.409       .  A
C635        H638   1.083       .  S
C639        C640   1.404       .  A
C639        C644   1.409       .  A
C640        C641   1.399       .  A
C640        H645   1.084       .  S
C641        C642   1.401       .  A
C642        C643   1.408       .  A
C642        H646   1.084       .  S
C643        C644   1.410       .  A
C644        H647   1.083       .  S
C648        C649   1.407       .  A
C648        C653   1.406       .  A
C649        C650   1.408       .  A
C649        H654   1.083       .  S
C650        C651   1.406       .  A
C651        C652   1.401       .  A
C651        H655   1.084       .  S
C652        C653   1.401       .  A
C653        H656   1.084       .  S
C657        C658   1.403   1_654  A
C657        C662   1.400       .  A
C657        C859   1.474       .  S
C658        H663   1.084       .  S
C659        C660   1.399       .  A
C659        C750   1.472       .  S
C660        C661   1.410   1_556  A
C660        H664   1.079       .  S
C661        C850   1.504       .  S
C662        H665   1.081       .  S
C666        C667   1.402       .  A
C666        C671   1.399       .  A
C666        C715   1.472       .  S
C667        C668   1.402   1_556  A
C667        H672   1.083       .  S
C668        C669   1.400       .  A
C668        C898   1.472       .  S
C669        C670   1.410   1_554  A
C669        H673   1.080   1_545  S
C670        C671   1.409       .  A
C670        C841   1.502       .  S
C671        H674   1.080       .  S
C675        C676   1.399       .  A
C675        C680   1.402       .  A
C675        C834   1.473       .  S
C676        C677   1.409       .  A
C676        H681   1.081       .  S
C677        C678   1.409       .  A
C678        C679   1.399       .  A
C678        H682   1.081       .  S
C679        C680   1.402       .  A
C679        C969   1.472       .  S
C680        H683   1.084       .  S
C684        C685   1.402       .  A
C684        C689   1.399       .  A
C684        C825   1.472       .  S
C685        C686   1.402       .  A
C685        H690   1.083       .  S
C686        C687   1.399       .  A
C686        C980   1.473       .  S
C687        C688   1.410       .  A
C687        H691   1.079       .  S
C688        C689   1.410       .  A
C688       C1023   1.502       .  S
C689        H692   1.079       .  S
C693        C694   1.399       .  A
C693        C698   1.402       .  A
C693        C953   1.472       .  S
C694        C695   1.409       .  A
C694        H699   1.080       .  S
C695        C696   1.409       .  A
C695       C1016   1.501   1_545  S
C696        C697   1.400       .  A
C696        H700   1.080       .  S
C697        C698   1.402       .  A
C697        C816   1.473       .  S
C698        H701   1.084       .  S
C702        C703   1.399       .  A
C702        C707   1.402       .  A
C702        C805   1.472       .  S
C703        C704   1.410       .  A
C703        H708   1.079       .  S
C704        C705   1.411       .  A
C705        C706   1.400       .  A
C705        H709   1.079       .  S
C706        C707   1.402       .  A
C706        C960   1.473       .  S
C707        H710   1.084       .  S
C711        C712   1.409       .  A
C711        C716   1.406       .  A
C711        C732   1.481       .  S
C712       C1041   1.408   1_545  A
C712        H717   1.083       .  S
C713       C1040   1.409       .  A
C713        C714   1.405       .  A
C713        C745   1.485       .  S
C714       C1043   1.401       .  A
C714        H718   1.084       .  S
C715       C1042   1.400   1_545  A
C715        C716   1.399       .  A
C716        H719   1.084       .  S
O720        V728   1.901       .  S
O720        C730   1.266       .  A
O721        V728   1.906       .  S
O721        C731   1.266       .  A
O722        V728   1.899       .  S
O722        C732   1.265       .  A
O723        V728   1.905       .  S
O723        C733   1.265       .  A
O724        V729   1.899       .  S
O724        C733   1.265       .  A
O725        V729   1.902       .  S
O725        C732   1.265       .  A
O726        V729   1.900       .  S
O726        C731   1.265       .  A
O727        V729   1.903       .  S
O727        C730   1.265       .  A
V728        V729   2.086       .  T
C730        C771   1.483       .  S
C731        C814   1.484       .  S
C733        C832   1.483       .  S
O734        V742   1.905       .  S
O734        C744   1.266       .  A
O735        V742   1.901       .  S
O735        C745   1.266       .  A
O736        V742   1.904       .  S
O736        C746   1.265       .  A
O737        V742   1.899       .  S
O737        C747   1.265       .  A
O738        V743   1.906       .  S
O738        C747   1.266       .  A
O739        V743   1.899       .  S
O739        C746   1.266       .  A
O740        V743   1.906       .  S
O740        C745   1.266       .  A
O741        V743   1.900       .  S
O741        C744   1.265       .  A
V742        V743   2.086       .  T
C744        C830   1.484       .  S
C746        C821   1.483       .  S
C747        C752   1.483       .  S
C748        C749   1.405       .  A
C748        C753   1.409       .  A
C748        C770   1.481       .  S
C749        C750   1.398       .  A
C749        H754   1.084       .  S
C751        C752   1.405       .  A
C751        H755   1.084       .  S
C753        H756   1.083       .  S
O757        V765   1.901       .  S
O757        C767   1.266       .  A
O758        V765   1.904       .  S
O758        C768   1.265       .  A
O759        V765   1.899       .  S
O759        C769   1.266       .  A
O760        V765   1.902       .  S
O760        C770   1.265       .  A
O761        V766   1.899       .  S
O761        C770   1.266       .  A
O762        V766   1.907       .  S
O762        C769   1.266       .  A
O763        V766   1.901       .  S
O763        C768   1.266       .  A
O764        V766   1.907       .  S
O764        C767   1.266       .  A
V765        V766   2.086       .  T
C767        C803   1.485       .  S
C768        C796   1.484       .  S
C769        C823   1.484       .  S
C771        C776   1.407       .  A
C772        C773   1.409       .  A
C772        H777   1.083       .  S
C773        C774   1.406       .  A
C773        C790   1.485       .  S
C774        C775   1.401       .  A
C774        H778   1.084       .  S
C775        C852   1.471       .  S
C776        H779   1.084       .  S
O780        V788   1.907       .  S
O780        C790   1.266       .  A
O781        V788   1.901       .  S
O781        C791   1.265       .  A
O782        V788   1.907       .  S
O782        C792   1.266       .  A
O783        V788   1.900       .  S
O783        C793   1.266       .  A
O784        V789   1.902       .  S
O784        C793   1.265       .  A
O785        V789   1.898       .  S
O785        C792   1.265       .  A
O786        V789   1.902       .  S
O786        C791   1.265       .  A
O787        V789   1.901       .  S
O787        C790   1.265       .  A
V788        V789   2.086       .  T
C791        C812   1.482       .  S
C792        C794   1.483       .  S
C793        C807   1.482       .  S
C794        C795   1.409       .  A
C794        C799   1.405       .  A
C795       C1124   1.410   1_545  A
C795        H800   1.083       .  S
C796       C1123   1.410       .  A
C796        C797   1.407       .  A
C797       C1126   1.401       .  A
C797        H801   1.084       .  S
C798       C1125   1.399   1_545  A
C798        C799   1.399       .  A
C798        C839   1.472       .  S
C799        H802   1.084       .  S
C803        C804   1.406       .  A
C803        C808   1.409       .  A
C804        C805   1.401       .  A
C804        H809   1.084       .  S
C805        C806   1.399       .  A
C806        C807   1.405       .  A
C806        H810   1.084       .  S
C807        C808   1.410       .  A
C808        H811   1.083       .  S
C812        C813   1.409       .  A
C812        C817   1.406       .  A
C813        C814   1.407       .  A
C813        H818   1.083       .  S
C814        C815   1.405       .  A
C815        C816   1.401       .  A
C815        H819   1.084       .  S
C816        C817   1.401       .  A
C817        H820   1.084       .  S
C821        C822   1.411       .  A
C821        C826   1.406       .  A
C822        C823   1.410       .  A
C822        H827   1.083       .  S
C823        C824   1.406       .  A
C824        C825   1.400       .  A
C824        H828   1.084       .  S
C825        C826   1.398       .  A
C826        H829   1.084       .  S
C830        C831   1.410       .  A
C830        C835   1.407       .  A
C831        C832   1.409       .  A
C831        H836   1.083       .  S
C832        C833   1.405       .  A
C833        C834   1.400       .  A
C833        H837   1.084       .  S
C834        C835   1.400       .  A
C835        H838   1.084       .  S
C839        C840   1.399       .  A
C839        C844   1.402       .  A
C840        C841   1.410       .  A
C840        H845   1.080   1_545  S
C841        C842   1.410   1_556  A
C842        C843   1.400       .  A
C842        H846   1.080       .  S
C843        C844   1.402   1_554  A
C843        C919   1.472       .  S
C844        H847   1.083       .  S
C848        C849   1.399       .  A
C848        C853   1.401       .  A
C848        C928   1.471       .  S
C849        C850   1.410       .  A
C849        H854   1.079       .  S
C850        C851   1.410   1_554  A
C851        C852   1.399       .  A
C851        H855   1.079       .  S
C852        C853   1.401   1_556  A
C853        H856   1.084       .  S
C857        C858   1.406       .  A
C857        C876   1.485       .  S
C858        H863   1.084       .  S
C859        C860   1.401       .  A
C860        C861   1.408       .  A
C860        H864   1.084       .  S
C861        C862   1.410       .  A
C861        C893   1.484       .  S
C862        H865   1.083       .  S
O866        V874   1.907       .  S
O866        C876   1.266       .  A
O867        V874   1.901       .  S
O867        C877   1.266       .  A
O868        V874   1.907       .  S
O868        C878   1.266       .  A
O869        V874   1.900       .  S
O869        C879   1.266       .  A
O870        V875   1.903       .  S
O870        C879   1.265       .  A
O871        V875   1.899       .  S
O871        C878   1.265       .  A
O872        V875   1.902       .  S
O872        C877   1.265       .  A
O873        V875   1.901       .  S
O873        C876   1.266       .  A
V874        V875   2.086       .  T
C877        C978   1.483       .  S
C878        C921   1.484       .  S
C879        C958   1.483       .  S
O880        V888   1.899       .  S
O880        C890   1.265       .  A
O881        V888   1.903       .  S
O881        C891   1.265       .  A
O882        V888   1.901       .  S
O882        C892   1.265       .  A
O883        V888   1.904       .  S
O883        C893   1.265       .  A
O884        V889   1.901       .  S
O884        C893   1.266       .  A
O885        V889   1.906       .  S
O885        C892   1.266       .  A
O886        V889   1.899       .  S
O886        C891   1.265       .  A
O887        V889   1.905       .  S
O887        C890   1.265       .  A
V888        V889   2.086       .  T
C890        C967   1.482       .  S
C891        C896   1.482       .  S
C892        C976   1.484       .  S
C894        C895   1.409       .  A
C894        C899   1.405       .  A
C894        C914   1.484       .  S
C895       C1224   1.410   1_545  A
C895        H900   1.083       .  S
C896       C1223   1.410       .  A
C896        C897   1.406       .  A
C897       C1226   1.399       .  A
C897        H901   1.084       .  S
C898       C1225   1.400   1_545  A
C898        C899   1.401       .  A
C899        H902   1.084       .  S
O903        V911   1.904       .  S
O903        C913   1.265       .  A
O904        V911   1.901       .  S
O904        C914   1.266       .  A
O905        V911   1.904       .  S
O905        C915   1.265       .  A
O906        V911   1.899       .  S
O906        C916   1.265       .  A
O907        V912   1.907       .  S
O907        C916   1.266       .  A
O908        V912   1.899       .  S
O908        C915   1.266       .  A
O909        V912   1.906       .  S
O909        C914   1.266       .  A
O910        V912   1.900       .  S
O910        C913   1.265       .  A
V911        V912   2.086       .  T
C913        C971   1.483       .  S
C915        C949   1.483       .  S
C916        C930   1.483       .  S
C917        C918   1.406       .  A
C917        C922   1.409       .  A
C917        C946   1.483       .  S
C918        C919   1.400       .  A
C918        H923   1.084       .  S
C919       C1248   1.401   1_545  A
C920       C1247   1.399       .  A
C920        C921   1.405       .  A
C920        H924   1.084       .  S
C921       C1250   1.409       .  A
C922       C1249   1.409   1_545  A
C922        H925   1.083       .  S
C926        C927   1.405       .  A
C926        C931   1.410       .  A
C926        C948   1.481       .  S
C927        C928   1.398       .  A
C927        H932   1.084       .  S
C929        C930   1.405       .  A
C929        H933   1.084       .  S
C931        H934   1.083       .  S
O935        V943   1.901       .  S
O935        C945   1.266       .  A
O936        V943   1.903       .  S
O936        C946   1.265       .  A
O937        V943   1.899       .  S
O937        C947   1.265       .  A
O938        V943   1.902       .  S
O938        C948   1.264       .  A
O939        V944   1.899       .  S
O939        C948   1.266       .  A
O940        V944   1.907       .  S
O940        C947   1.266       .  A
O941        V944   1.901       .  S
O941        C946   1.266       .  A
O942        V944   1.907       .  S
O942        C945   1.266       .  A
V943        V944   2.086       .  T
C945        C962   1.485       .  S
C947        C951   1.484       .  S
C949        C950   1.411       .  A
C949        C954   1.406       .  A
C950        C951   1.409       .  A
C950        H955   1.083       .  S
C951        C952   1.405       .  A
C952        C953   1.399       .  A
C952        H956   1.084       .  S
C953        C954   1.399       .  A
C954        H957   1.084       .  S
C958        C959   1.406       .  A
C958        C963   1.410       .  A
C959        C960   1.399       .  A
C959        H964   1.084       .  S
C960        C961   1.401       .  A
C961        C962   1.406       .  A
C961        H965   1.084       .  S
C962        C963   1.409       .  A
C963        H966   1.083       .  S
C967        C968   1.404       .  A
C967        C972   1.408       .  A
C968        C969   1.400       .  A
C968        H973   1.084       .  S
C969        C970   1.400       .  A
C970        C971   1.407       .  A
C970        H974   1.084       .  S
C971        C972   1.409       .  A
C972        H975   1.083       .  S
C976        C977   1.408       .  A
C976        C981   1.406       .  A
C977        C978   1.409       .  A
C977        H982   1.083       .  S
C978        C979   1.406       .  A
C979        C980   1.400       .  A
C979        H983   1.084       .  S
C980        C981   1.401       .  A
C981        H984   1.084       .  S
C985        C986   1.401       .  A
C985        C990   1.399       .  A
C985       C1187   1.471       .  S
C986        H991   1.084       .  S
C987        C988   1.400       .  A
C987       C1078   1.473       .  S
C988        C989   1.409       .  A
C988        H992   1.081       .  S
C989       C1178   1.500       .  S
C990        H993   1.079       .  S
C994        C995   1.402   1_556  A
C994        C999   1.400       .  A
C994       C1043   1.473       .  S
C995        C996   1.402       .  A
C995       H1000   1.083       .  S
C996        C997   1.399       .  A
C996       C1226   1.472       .  S
C997        C998   1.409       .  A
C997       H1001   1.080       .  S
C998        C999   1.410   1_554  A
C998       C1169   1.502       .  S
C999       H1002   1.080       .  S
C1003      C1004   1.399       .  A
C1003      C1008   1.402       .  A
C1003      C1162   1.472       .  S
C1004      C1005   1.410       .  A
C1004      H1009   1.079       .  S
C1005      C1006   1.411       .  A
C1006      C1007   1.400       .  A
C1006      H1010   1.079       .  S
C1007      C1008   1.402       .  A
C1007      C1297   1.473       .  S
C1008      H1011   1.084       .  S
C1012      C1013   1.402       .  A
C1012      C1017   1.400       .  A
C1012      C1153   1.473       .  S
C1013      C1014   1.402       .  A
C1013      H1018   1.084       .  S
C1014      C1015   1.399       .  A
C1014      C1308   1.472       .  S
C1015      C1016   1.409       .  A
C1015      H1019   1.080       .  S
C1016      C1017   1.410       .  A
C1017      H1020   1.080       .  S
C1021      C1022   1.400       .  A
C1021      C1026   1.402       .  A
C1021      C1281   1.473       .  S
C1022      C1023   1.410       .  A
C1022      H1027   1.080       .  S
C1023      C1024   1.409       .  A
C1024      C1025   1.399       .  A
C1024      H1028   1.079       .  S
C1025      C1026   1.402       .  A
C1025      C1144   1.471       .  S
C1026      H1029   1.083       .  S
C1030      C1031   1.399       .  A
C1030      C1035   1.403       .  A
C1030      C1133   1.473       .  S
C1031      C1032   1.409       .  A
C1031      H1036   1.081       .  S
C1032      C1033   1.408       .  A
C1033      C1034   1.399       .  A
C1033      H1037   1.081       .  S
C1034      C1035   1.403       .  A
C1034      C1288   1.472       .  S
C1035      H1038   1.084       .  S
C1039      C1040   1.410       .  A
C1039      C1044   1.406       .  A
C1039      C1060   1.484       .  S
C1040      H1045   1.083       .  S
C1041      C1042   1.406       .  A
C1041      C1073   1.483       .  S
C1042      H1046   1.084       .  S
C1043      C1044   1.400       .  A
C1044      H1047   1.084       .  S
O1048      V1056   1.898       .  S
O1048      C1058   1.265       .  A
O1049      V1056   1.906       .  S
O1049      C1059   1.265       .  A
O1050      V1056   1.902       .  S
O1050      C1060   1.266       .  A
O1051      V1056   1.908       .  S
O1051      C1061   1.266       .  A
O1052      V1057   1.900       .  S
O1052      C1061   1.265       .  A
O1053      V1057   1.903       .  S
O1053      C1060   1.265       .  A
O1054      V1057   1.899       .  S
O1054      C1059   1.266       .  A
O1055      V1057   1.904       .  S
O1055      C1058   1.265       .  A
V1056      V1057   2.086       .  T
C1058      C1099   1.482       .  S
C1059      C1142   1.484       .  S
C1061      C1160   1.485       .  S
O1062      V1070   1.901       .  S
O1062      C1072   1.264       .  A
O1063      V1070   1.898       .  S
O1063      C1073   1.265       .  A
O1064      V1070   1.903       .  S
O1064      C1074   1.265       .  A
O1065      V1070   1.901       .  S
O1065      C1075   1.266       .  A
O1066      V1071   1.906       .  S
O1066      C1075   1.266       .  A
O1067      V1071   1.901       .  S
O1067      C1074   1.265       .  A
O1068      V1071   1.907       .  S
O1068      C1073   1.266       .  A
O1069      V1071   1.901       .  S
O1069      C1072   1.266       .  A
V1070      V1071   2.086       .  T
C1072      C1158   1.482       .  S
C1074      C1149   1.483       .  S
C1075      C1080   1.485       .  S
C1076      C1077   1.408       .  A
C1076      C1081   1.410       .  A
C1076      C1098   1.484       .  S
C1077      C1078   1.401       .  A
C1077      H1082   1.084       .  S
C1079      C1080   1.406       .  A
C1079      H1083   1.084       .  S
C1081      H1084   1.083       .  S
O1085      V1093   1.899       .  S
O1085      C1095   1.265       .  A
O1086      V1093   1.903       .  S
O1086      C1096   1.265       .  A
O1087      V1093   1.901       .  S
O1087      C1097   1.265       .  A
O1088      V1093   1.903       .  S
O1088      C1098   1.265       .  A
O1089      V1094   1.901       .  S
O1089      C1098   1.266       .  A
O1090      V1094   1.905       .  S
O1090      C1097   1.266       .  A
O1091      V1094   1.898       .  S
O1091      C1096   1.265       .  A
O1092      V1094   1.905       .  S
O1092      C1095   1.265       .  A
V1093      V1094   2.086       .  T
C1095      C1131   1.482       .  S
C1096      C1124   1.482       .  S
C1097      C1151   1.483       .  S
C1099      C1104   1.405       .  A
C1100      C1101   1.408       .  A
C1100      H1105   1.083       .  S
C1101      C1102   1.404       .  A
C1101      C1118   1.483       .  S
C1102      C1103   1.399       .  A
C1102      H1106   1.084       .  S
C1103      C1180   1.474       .  S
C1104      H1107   1.084       .  S
O1108      V1116   1.906       .  S
O1108      C1118   1.266       .  A
O1109      V1116   1.899       .  S
O1109      C1119   1.266       .  A
O1110      V1116   1.905       .  S
O1110      C1120   1.265       .  A
O1111      V1116   1.900       .  S
O1111      C1121   1.265       .  A
O1112      V1117   1.905       .  S
O1112      C1121   1.266       .  A
O1113      V1117   1.902       .  S
O1113      C1120   1.266       .  A
O1114      V1117   1.904       .  S
O1114      C1119   1.265       .  A
O1115      V1117   1.899       .  S
O1115      C1118   1.265       .  A
V1116      V1117   2.086       .  T
C1119      C1140   1.483       .  S
C1120      C1122   1.484       .  S
C1121      C1135   1.484       .  S
C1122      C1123   1.409       .  A
C1122      C1127   1.405       .  A
C1123      H1128   1.083       .  S
C1124      C1125   1.406       .  A
C1125      H1129   1.084       .  S
C1126      C1127   1.401       .  A
C1126      C1167   1.473       .  S
C1127      H1130   1.084       .  S
C1131      C1132   1.404       .  A
C1131      C1136   1.408       .  A
C1132      C1133   1.399       .  A
C1132      H1137   1.084       .  S
C1133      C1134   1.401       .  A
C1134      C1135   1.408       .  A
C1134      H1138   1.084       .  S
C1135      C1136   1.410       .  A
C1136      H1139   1.083       .  S
C1140      C1141   1.411       .  A
C1140      C1145   1.406       .  A
C1141      C1142   1.410       .  A
C1141      H1146   1.083       .  S
C1142      C1143   1.405       .  A
C1143      C1144   1.399       .  A
C1143      H1147   1.084       .  S
C1144      C1145   1.398       .  A
C1145      H1148   1.084       .  S
C1149      C1150   1.408       .  A
C1149      C1154   1.407       .  A
C1150      C1151   1.407       .  A
C1150      H1155   1.083       .  S
C1151      C1152   1.405       .  A
C1152      C1153   1.401       .  A
C1152      H1156   1.084       .  S
C1153      C1154   1.401       .  A
C1154      H1157   1.084       .  S
C1158      C1159   1.410       .  A
C1158      C1163   1.405       .  A
C1159      C1160   1.409       .  A
C1159      H1164   1.083       .  S
C1160      C1161   1.406       .  A
C1161      C1162   1.401       .  A
C1161      H1165   1.084       .  S
C1162      C1163   1.399       .  A
C1163      H1166   1.084       .  S
C1167      C1168   1.400       .  A
C1167      C1172   1.402   1_556  A
C1168      C1169   1.409   1_556  A
C1168      H1173   1.080       .  S
C1169      C1170   1.410       .  A
C1170      C1171   1.399       .  A
C1170      H1174   1.080       .  S
C1171      C1172   1.402       .  A
C1171      C1247   1.473       .  S
C1172      H1175   1.084       .  S
C1176      C1177   1.400       .  A
C1176      C1181   1.403   1_554  A
C1176      C1256   1.474       .  S
C1177      C1178   1.409   1_554  A
C1177      H1182   1.081       .  S
C1178      C1179   1.409       .  A
C1179      C1180   1.400       .  A
C1179      H1183   1.081       .  S
C1180      C1181   1.403       .  A
C1181      H1184   1.084       .  S
C1185      C1186   1.404       .  A
C1185      C1204   1.483       .  S
C1186      H1191   1.084       .  S
C1187      C1188   1.398       .  A
C1188      C1189   1.405       .  A
C1188      H1192   1.084       .  S
C1189      C1190   1.410       .  A
C1189      C1221   1.482       .  S
C1190      H1193   1.083       .  S
O1194      V1202   1.907       .  S
O1194      C1204   1.266       .  A
O1195      V1202   1.899       .  S
O1195      C1205   1.266       .  A
O1196      V1202   1.905       .  S
O1196      C1206   1.265       .  A
O1197      V1202   1.900       .  S
O1197      C1207   1.265       .  A
O1198      V1203   1.904       .  S
O1198      C1207   1.266       .  A
O1199      V1203   1.901       .  S
O1199      C1206   1.266       .  A
O1200      V1203   1.903       .  S
O1200      C1205   1.265       .  A
O1201      V1203   1.899       .  S
O1201      C1204   1.265       .  A
V1202      V1203   2.086       .  T
C1205      C1306   1.483       .  S
C1206      C1249   1.484       .  S
C1207      C1286   1.483       .  S
O1208      V1216   1.899       .  S
O1208      C1218   1.265       .  A
O1209      V1216   1.903       .  S
O1209      C1219   1.265       .  A
O1210      V1216   1.899       .  S
O1210      C1220   1.266       .  A
O1211      V1216   1.903       .  S
O1211      C1221   1.265       .  A
O1212      V1217   1.898       .  S
O1212      C1221   1.266       .  A
O1213      V1217   1.907       .  S
O1213      C1220   1.265       .  A
O1214      V1217   1.902       .  S
O1214      C1219   1.266       .  A
O1215      V1217   1.908       .  S
O1215      C1218   1.266       .  A
V1216      V1217   2.086       .  T
C1218      C1295   1.485       .  S
C1219      C1224   1.483       .  S
C1220      C1304   1.484       .  S
C1222      C1223   1.408       .  A
C1222      C1227   1.406       .  A
C1222      C1242   1.484       .  S
C1223      H1228   1.083       .  S
C1224      C1225   1.406       .  A
C1225      H1229   1.084       .  S
C1226      C1227   1.400       .  A
C1227      H1230   1.084       .  S
O1231      V1239   1.902       .  S
O1231      C1241   1.264       .  A
O1232      V1239   1.898       .  S
O1232      C1242   1.265       .  A
O1233      V1239   1.903       .  S
O1233      C1243   1.266       .  A
O1234      V1239   1.902       .  S
O1234      C1244   1.266       .  A
O1235      V1240   1.906       .  S
O1235      C1244   1.266       .  A
O1236      V1240   1.901       .  S
O1236      C1243   1.265       .  A
O1237      V1240   1.907       .  S
O1237      C1242   1.266       .  A
O1238      V1240   1.901       .  S
O1238      C1241   1.266       .  A
V1239      V1240   2.086       .  T
C1241      C1299   1.482       .  S
C1243      C1277   1.483       .  S
C1244      C1258   1.485       .  S
C1245      C1246   1.407       .  A
C1245      C1250   1.410       .  A
C1245      C1274   1.482       .  S
C1246      C1247   1.399       .  A
C1246      H1251   1.084       .  S
C1248      C1249   1.405       .  A
C1248      H1252   1.084       .  S
C1250      H1253   1.083       .  S
C1254      C1255   1.408       .  A
C1254      C1259   1.410       .  A
C1254      C1276   1.484       .  S
C1255      C1256   1.401       .  A
C1255      H1260   1.084       .  S
C1257      C1258   1.406       .  A
C1257      H1261   1.084       .  S
C1259      H1262   1.083       .  S
O1263      V1271   1.899       .  S
O1263      C1273   1.266       .  A
O1264      V1271   1.904       .  S
O1264      C1274   1.265       .  A
O1265      V1271   1.901       .  S
O1265      C1275   1.265       .  A
O1266      V1271   1.904       .  S
O1266      C1276   1.266       .  A
O1267      V1272   1.901       .  S
O1267      C1276   1.266       .  A
O1268      V1272   1.905       .  S
O1268      C1275   1.266       .  A
O1269      V1272   1.898       .  S
O1269      C1274   1.265       .  A
O1270      V1272   1.905       .  S
O1270      C1273   1.265       .  A
V1271      V1272   2.086       .  T
C1273      C1290   1.482       .  S
C1275      C1279   1.484       .  S
C1277      C1278   1.408       .  A
C1277      C1282   1.406       .  A
C1278      C1279   1.408       .  A
C1278      H1283   1.083       .  S
C1279      C1280   1.406       .  A
C1280      C1281   1.401       .  A
C1280      H1284   1.084       .  S
C1281      C1282   1.401       .  A
C1282      H1285   1.084       .  S
C1286      C1287   1.407       .  A
C1286      C1291   1.410       .  A
C1287      C1288   1.401       .  A
C1287      H1292   1.084       .  S
C1288      C1289   1.399       .  A
C1289      C1290   1.404       .  A
C1289      H1293   1.084       .  S
C1290      C1291   1.408       .  A
C1291      H1294   1.083       .  S
C1295      C1296   1.407       .  A
C1295      C1300   1.409       .  A
C1296      C1297   1.401       .  A
C1296      H1301   1.084       .  S
C1297      C1298   1.399       .  A
C1298      C1299   1.405       .  A
C1298      H1302   1.084       .  S
C1299      C1300   1.410       .  A
C1300      H1303   1.083       .  S
C1304      C1305   1.410       .  A
C1304      C1309   1.405       .  A
C1305      C1306   1.411       .  A
C1305      H1310   1.083       .  S
C1306      C1307   1.406       .  A
C1307      C1308   1.398       .  A
C1307      H1311   1.084       .  S
C1308      C1309   1.399       .  A
C1309      H1312   1.084       .  S
