geometry optimzed in LAMMPS
_audit_creation_date              2020-11-30 
_audit_creation_method            'lammps2cif' 
_symmetry_space_group_name_H-M    'P1' 
_symmetry_Int_Tables_number       1 
_symmetry_cell_setting            triclinic 
loop_ 
_symmetry_equiv_pos_as_xyz 
  x,y,z 
_cell_length_a                    45.95910584 
_cell_length_b                    45.947394854479654 
_cell_length_c                    46.07912373194355 
_cell_angle_alpha                 89.88796008098825 
_cell_angle_beta                  90.11489707327782 
_cell_angle_gamma                 90.13291594519926 
loop_ 
_atom_site_label 
_atom_site_type_symbol 
_atom_site_fract_x 
_atom_site_fract_y 
_atom_site_fract_z 
_atom_site_charge 
N1          N  0.98891763  0.25908989  0.26736892    -0.02600
C2          C  0.98665755  0.23061715  0.27503032     0.00000
C3          C  0.98174443  0.21387754  0.25051361    -0.22900
C4          C  0.98175183  0.23251572  0.22715262    -0.23100
C5          C  0.98672555  0.26021149  0.23801232    -0.00100
H6          H  0.97882517  0.19052701  0.24950622     0.13700
H7          H  0.97854424  0.22613201  0.20480536     0.13700
O8          O  0.00375708  0.44175506  0.41803845    -0.79300
O9          O  0.99393435  0.46542864  0.58148443    -0.80800
O10         O  0.04565475  0.41726926  0.50530452    -0.77800
O11         O  0.94938290  0.42068965  0.50126950    -0.76200
O12         O  0.91613746  0.45705961  0.49382140    -0.78000
O13         O  0.08156311  0.45191104  0.50444413    -0.78900
O14         O  0.99519378  0.42550980  0.55188583    -0.80300
O15         O  0.99992003  0.41227323  0.45796967    -0.80600
Eu16       Eu  0.99839831  0.44287979  0.50144046     2.39200
O17         O  0.96801564  0.47754949  0.52367124    -0.88100
O18         O  0.03106917  0.46749664  0.47073079    -0.91700
C19         C  0.00157309  0.41648936  0.43036076     1.03000
C20         C  0.99403999  0.43766406  0.57711762     1.02800
C21         C  0.07264919  0.42532713  0.50579680     1.02800
C22         C  0.92307160  0.43013373  0.49812368     1.00600
H23         H  0.03809345  0.46458640  0.54330931     0.30400
O24         O  0.02722502  0.47526040  0.52887257    -1.00400
H25         H  0.96034949  0.45593095  0.45492887     0.30400
O26         O  0.97218571  0.46924538  0.46603297    -1.03000
O27         O  0.99646297  0.56054764  0.56812693    -0.80200
O28         O  0.00851540  0.53707931  0.40447222    -0.79800
O29         O  0.08006542  0.50608089  0.54770966    -0.78200
O30         O  0.91467578  0.51041687  0.53378154    -0.81500
O31         O  0.92179242  0.49739347  0.43922542    -0.79400
O32         O  0.08680680  0.49149130  0.45287582    -0.78000
O33         O  0.05261333  0.58274175  0.48554155    -0.79600
O34         O  0.95737300  0.58605841  0.47953448    -0.81500
O35         O  0.08589456  0.54643288  0.49281720    -0.78200
O36         O  0.91994031  0.55307929  0.48102978    -0.80900
O37         O  0.04214080  0.51197529  0.57925177    -0.76600
O38         O  0.05450203  0.48784615  0.41511593    -0.76700
O39         O  0.95923881  0.49078114  0.40724126    -0.76300
O40         O  0.94754022  0.51290933  0.57110532    -0.79800
O41         O  0.00098828  0.59065177  0.52870643    -0.79200
O42         O  0.00765207  0.57736075  0.43366123    -0.77600
Eu43       Eu  0.99679699  0.50970952  0.55117495     2.39800
Eu44       Eu  0.00507247  0.49301477  0.43482123     2.39600
Eu45       Eu  0.05975164  0.50002094  0.49810607     2.38400
Eu46       Eu  0.94187437  0.50403879  0.48828200     2.39900
Eu47       Eu  0.00384080  0.56036663  0.48460332     2.39800
O48         O  0.97491893  0.52795028  0.45716346    -0.92000
O49         O  0.02961001  0.53445023  0.52056633    -0.90900
C50         C  0.99817060  0.58599927  0.55622477     1.03200
C51         C  0.00890864  0.56487662  0.40852629     1.01900
C52         C  0.06949315  0.51001645  0.57344706     1.01300
C53         C  0.92137336  0.51271391  0.56090083     1.03300
C54         C  0.93196581  0.49272026  0.41353554     1.02200
C55         C  0.08052205  0.48797762  0.42578294     1.01100
C56         C  0.07890034  0.57330468  0.48865462     1.01100
C57         C  0.93011629  0.57935036  0.47903054     1.03800
H58         H  0.04735754  0.53550483  0.44938646     0.31100
O59         O  0.03383530  0.52567547  0.46210699    -1.04100
H60         H  0.95863515  0.54996289  0.52506456     0.33200
O61         O  0.97102736  0.53599342  0.51556303    -1.06700
N62         N  0.96429392  0.72452805  0.73307405    -0.02600
C63         C  0.95443495  0.71740129  0.75992935     0.00000
C64         C  0.93895997  0.74061328  0.77140242    -0.22900
C65         C  0.93999824  0.76266377  0.75128262    -0.23100
C66         C  0.95589598  0.75238723  0.72804115    -0.00100
H67         H  0.92849996  0.74214575  0.79231670     0.13700
H68         H  0.93131875  0.78434799  0.75407696     0.13700
N69         N  0.00383383  0.26334304  0.72464507    -0.02600
C70         C  0.00675989  0.23404664  0.72200771     0.00000
C71         C  0.01551185  0.22209250  0.74826197    -0.22900
C72         C  0.01769746  0.24462335  0.76762281    -0.23100
C73         C  0.01030355  0.26968135  0.75272192    -0.00100
H74         H  0.02011060  0.19950986  0.75303658     0.13700
H75         H  0.02308418  0.24275904  0.79042999     0.13700
N76         N  0.97801919  0.72961735  0.25597437    -0.02600
C77         C  0.98101278  0.72596080  0.22690043     0.00000
C78         C  0.98114483  0.75283881  0.21319068    -0.22900
C79         C  0.97852264  0.77351591  0.23442129    -0.23100
C80         C  0.97654307  0.75873434  0.26058044    -0.00100
H81         H  0.98270480  0.75716752  0.19015606     0.13700
H82         H  0.97894361  0.79677214  0.23084326     0.13700
O83         O  0.00815853  0.04192661  0.42122623    -0.79300
O84         O  0.99404338  0.02921709  0.58513132    -0.80800
O85         O  0.95482513  0.07478035  0.50171835    -0.77800
O86         O  0.05166021  0.06777653  0.50794874    -0.76200
O87         O  0.08379989  0.02967268  0.50786970    -0.78000
O88         O  0.91852824  0.04085072  0.49720598    -0.78900
O89         O  0.99947952  0.06713470  0.55321081    -0.80300
O90         O  0.00593001  0.07574954  0.45758224    -0.80600
Eu91       Eu  0.00180546  0.04779792  0.50355735     2.39200
O92         O  0.02728847  0.01365484  0.53258581    -0.88100
O93         O  0.97329963  0.02171230  0.47015026    -0.91700
C94         C  0.00810933  0.06833273  0.43058580     1.03000
C95         C  0.99635061  0.05657730  0.57902805     1.02800
C96         C  0.92771007  0.06729074  0.49931985     1.02800
C97         C  0.07765308  0.05701234  0.50887589     1.00600
H98         H  0.95618355  0.02914556  0.54100072     0.30400
O99         O  0.96863812  0.01756826  0.52879387    -1.00400
H100        H  0.04585898  0.02998664  0.46445452     0.30400
O101        O  0.03206455  0.01799796  0.47479914    -1.03000
O102        O  0.98895118  0.93413313  0.57785115    -0.80200
O103        O  0.00102071  0.94747761  0.41285700    -0.79800
O104        O  0.91156571  0.98682941  0.54058275    -0.78200
O105        O  0.07806900  0.97963319  0.55270741    -0.81500
O106        O  0.08539308  0.98492684  0.45884426    -0.79400
O107        O  0.92024005  0.99924133  0.44612483    -0.78000
O108        O  0.94463397  0.90847883  0.48619231    -0.79600
O109        O  0.04064509  0.90186820  0.49492476    -0.81500
O110        O  0.91296042  0.94688939  0.48613846    -0.78200
O111        O  0.07789191  0.93445337  0.50134224    -0.80900
O112        O  0.94498478  0.98182186  0.57712584    -0.76600
O113        O  0.95807732  0.99973930  0.41386492    -0.76700
O114        O  0.05350223  0.99127292  0.42119631    -0.76300
O115        O  0.04000555  0.97966885  0.58459487    -0.79800
O116        O  0.98639190  0.90223494  0.53973991    -0.79200
O117        O  0.99541462  0.90915057  0.44422801    -0.77600
Eu118      Eu  0.99423341  0.98346249  0.55735001     2.39800
Eu119      Eu  0.00357272  0.99269348  0.44098443     2.39600
Eu120      Eu  0.93979246  0.99208050  0.49515167     2.38400
Eu121      Eu  0.05702509  0.98371938  0.50373508     2.39900
Eu122      Eu  0.99420943  0.92876483  0.49397626     2.39800
O123        O  0.02833116  0.95844915  0.46970094    -0.92000
O124        O  0.96504118  0.95820479  0.52377791    -0.90900
C125        C  0.98571689  0.90837811  0.56705477     1.03200
C126        C  0.99767803  0.92016794  0.41849398     1.01900
C127        C  0.91869135  0.98320135  0.56751184     1.01300
C128        C  0.06737336  0.97866028  0.57857566     1.03300
C129        C  0.07944374  0.98821810  0.43171037     1.02200
C130        C  0.93082131  0.00138680  0.42028502     1.01100
C131        C  0.91886984  0.91960627  0.48367549     1.01100
C132        C  0.06786096  0.90838521  0.49786964     1.03800
H133        H  0.95769735  0.95346076  0.45117310     0.31100
O134        O  0.96960314  0.96326873  0.46538391    -1.04100
H135        H  0.03387200  0.93981626  0.54017731     0.33200
O136        O  0.02358281  0.95361747  0.52815829    -1.06700
N137        N  0.22745345  0.22666005  0.51783665    -0.02600
C138        C  0.22142827  0.25526303  0.52141846     0.00000
C139        C  0.24576570  0.26967715  0.53168363    -0.22900
C140        C  0.26755705  0.24936064  0.53383663    -0.23100
C141        C  0.25594806  0.22285924  0.52492623    -0.00100
H142        H  0.24763214  0.29249420  0.53715579     0.13700
H143        H  0.28957074  0.25417530  0.54055800     0.13700
N144        N  0.77029672  0.22735454  0.48256359    -0.02600
C145        C  0.77531955  0.25644978  0.48586237     0.00000
C146        C  0.74946228  0.27164192  0.48321640    -0.22900
C147        C  0.72800739  0.25158698  0.47812772    -0.23100
C148        C  0.74121041  0.22452113  0.47751223    -0.00100
H149        H  0.74645218  0.29497734  0.48394111     0.13700
H150        H  0.70513281  0.25647701  0.47556292     0.13700
N151        N  0.76255044  0.75693912  0.45074057    -0.02600
C152        C  0.73409353  0.76495357  0.44847321     0.00000
C153        C  0.71870346  0.74379040  0.43343725    -0.22900
C154        C  0.73799072  0.72197758  0.42691699    -0.23100
C155        C  0.76447597  0.73011511  0.43845065    -0.00100
H156        H  0.69585552  0.74404984  0.42773778     0.13700
H157        H  0.73303303  0.70193502  0.41562092     0.13700
N158        N  0.24045044  0.76300339  0.52374591    -0.02600
C159        C  0.23219818  0.73466496  0.52060513     0.00000
C160        C  0.25470402  0.71643891  0.52902837    -0.22900
C161        C  0.27736045  0.73390325  0.53758527    -0.23100
C162        C  0.26823387  0.76219725  0.53388706    -0.00100
H163        H  0.25441109  0.69290082  0.52987080     0.13700
H164        H  0.29838211  0.72673739  0.54541099     0.13700
N165        N  0.73760766  0.00569394  0.26046746    -0.02600
C166        C  0.76585036  0.01173414  0.26676736     0.00000
C167        C  0.78046732  0.02042486  0.24201006    -0.22900
C168        C  0.76064344  0.01995747  0.21984541    -0.23100
C169        C  0.73425643  0.01110573  0.23158857    -0.00100
H170        H  0.80330573  0.02574042  0.23986934     0.13700
H171        H  0.76564520  0.02455002  0.19737731     0.13700
O172        O  0.45970700  0.08477726  0.49402258    -0.79300
O173        O  0.44350374  0.91992766  0.50132232    -0.80800
O174        O  0.41227241  0.00369098  0.45332718    -0.77800
O175        O  0.42262667  0.00347373  0.54743559    -0.76200
O176        O  0.46156300  0.00282227  0.57842959    -0.78000
O177        O  0.44231728  0.99727749  0.41432580    -0.78900
O178        O  0.41287174  0.95915252  0.50252756    -0.80300
O179        O  0.42188113  0.05285795  0.50010517    -0.80600
Eu180      Eu  0.44162536  0.00353282  0.49764224     2.39200
O181        O  0.47099534  0.97201021  0.52482721    -0.88100
O182        O  0.46986669  0.02906592  0.46342260    -0.91700
C183        C  0.43248203  0.07881137  0.49839934     1.03000
C184        C  0.41798050  0.93164400  0.50360278     1.02800
C185        C  0.41693503  0.00055726  0.42596257     1.02800
C186        C  0.43408380  0.00310764  0.57302828     1.00600
H187        H  0.44945671  0.95814911  0.45661073     0.30400
O188        O  0.46396762  0.96955471  0.46669281    -1.00400
H189        H  0.46735648  0.04465916  0.53550576     0.30400
O190        O  0.47677236  0.03116960  0.52254102    -1.03000
O191        O  0.53934484  0.90988817  0.49105442    -0.80200
O192        O  0.55575943  0.07508042  0.48177205    -0.79800
O193        O  0.48787232  0.94633199  0.41135860    -0.78200
O194        O  0.50183399  0.95220469  0.57640793    -0.81500
O195        O  0.51406621  0.04805658  0.57111598    -0.79400
O196        O  0.49396301  0.04064483  0.40642056    -0.78000
O197        O  0.57687182  0.98980945  0.43440994    -0.79600
O198        O  0.58687460  0.99167565  0.53148330    -0.81500
O199        O  0.53740557  0.99149177  0.40398532    -0.78200
O200        O  0.55469741  0.99399424  0.56935399    -0.80900
O201        O  0.48744321  0.91285199  0.44820295    -0.76600
O202        O  0.50334450  0.07733938  0.43875674    -0.76700
O203        O  0.51535322  0.08168912  0.53434533    -0.76300
O204        O  0.49489157  0.91673866  0.54224223    -0.79800
O205        O  0.57791045  0.94091585  0.48473960    -0.79200
O206        O  0.58700219  0.03626573  0.48154688    -0.77600
Eu207      Eu  0.49388304  0.93850444  0.49412833     2.39800
Eu208      Eu  0.50549571  0.05645580  0.48827287     2.39600
Eu209      Eu  0.49279044  0.99481730  0.43307068     2.38400
Eu210      Eu  0.50601109  0.99921765  0.54983779     2.39900
Eu211      Eu  0.55865164  0.99109914  0.48529425     2.39800
O212        O  0.53481420  0.02451634  0.51582378    -0.92000
O213        O  0.52299548  0.96370235  0.46041138    -0.90900
C214        C  0.56676750  0.91517553  0.48750049     1.03200
C215        C  0.58150099  0.06375344  0.48028228     1.01900
C216        C  0.48631738  0.92006759  0.42120672     1.01300
C217        C  0.49768119  0.92544587  0.56861805     1.03300
C218        C  0.51696521  0.07434786  0.56136877     1.02200
C219        C  0.49889486  0.06744619  0.41282719     1.01100
C220        C  0.56504779  0.99045299  0.40883584     1.01100
C221        C  0.58050225  0.99225325  0.55885849     1.03800
H222        H  0.54002217  0.03270352  0.44414383     0.31100
O223        O  0.52827149  0.02220258  0.45803479    -1.04100
H224        H  0.54138640  0.95279467  0.53052797     0.33200
O225        O  0.52945731  0.96574659  0.51906512    -1.06700
N226        N  0.27226000  0.96990176  0.72669325    -0.02600
C227        C  0.28119674  0.96224253  0.75375112     0.00000
C228        C  0.25790515  0.95091819  0.76915917    -0.22900
C229        C  0.23415724  0.95162327  0.75099021    -0.23100
C230        C  0.24351624  0.96348863  0.72493495    -0.00100
H231        H  0.25773425  0.94368646  0.79151150     0.13700
H232        H  0.21262180  0.94392174  0.75649176     0.13700
N233        N  0.72466644  0.00172115  0.72453261    -0.02600
C234        C  0.75383107  0.00074231  0.71966892     0.00000
C235        C  0.76860088  0.00363095  0.74574602    -0.22900
C236        C  0.74791234  0.00593551  0.76710423    -0.23100
C237        C  0.72096744  0.00455597  0.75359131    -0.00100
H238        H  0.79186448  0.00384876  0.74925189     0.13700
H239        H  0.75234005  0.00770596  0.79009708     0.13700
N240        N  0.26155096  0.97541523  0.26287716    -0.02600
C241        C  0.26708188  0.96728019  0.23515600     0.00000
C242        C  0.24153956  0.95790025  0.22204820    -0.22900
C243        C  0.21982021  0.96069976  0.24231462    -0.23100
C244        C  0.23256394  0.97181181  0.26723368    -0.00100
H245        H  0.23845323  0.95036640  0.20005028     0.13700
H246        H  0.19712117  0.95537314  0.23894289     0.13700
O247        O  0.57933636  0.99326728  0.05139206    -0.79300
O248        O  0.41519336  0.98200484  0.04331322    -0.80800
O249        O  0.49396332  0.03013990  0.08639976    -0.77800
O250        O  0.49756650  0.93439688  0.07629497    -0.76200
O251        O  0.50237714  0.90366069  0.03760211    -0.78000
O252        O  0.49382620  0.06921638  0.05545468    -0.78900
O253        O  0.44858033  0.97983302  0.08020579    -0.80300
O254        O  0.54297803  0.98624859  0.08458492    -0.80600
Eu255      Eu  0.49685443  0.98512469  0.05805862     2.39200
O256        O  0.47123394  0.95758721  0.02384624    -0.88100
O257        O  0.52546700  0.01963454  0.03319126    -0.91700
C258        C  0.56986592  0.98987560  0.07759005     1.03000
C259        C  0.42227213  0.97936859  0.07036943     1.02800
C260        C  0.49352957  0.05770096  0.08109286     1.02800
C261        C  0.49953801  0.90874406  0.06493442     1.00600
H262        H  0.45357277  0.02643831  0.04290229     0.30400
O263        O  0.46695955  0.01632398  0.03032081    -1.00400
H264        H  0.54271230  0.94851965  0.03926933     0.30400
O265        O  0.53027820  0.96106139  0.02780507    -1.03000
O266        O  0.41914268  0.98982717  0.94767119    -0.80200
O267        O  0.58411570  0.00234013  0.95607271    -0.79800
O268        O  0.44728678  0.07195780  0.00423676    -0.78200
O269        O  0.45915760  0.90559374  0.99089851    -0.81500
O270        O  0.55401187  0.91302049  0.99381729    -0.79400
O271        O  0.54215923  0.07769976  0.01010461    -0.78000
O272        O  0.50028796  0.04879293  0.92103613    -0.79600
O273        O  0.50654781  0.95231678  0.91211380    -0.81500
O274        O  0.49719576  0.07928232  0.96018672    -0.78200
O275        O  0.50915809  0.91461019  0.94461021    -0.80900
O276        O  0.41435188  0.03496595  0.99824077    -0.76600
O277        O  0.57876435  0.04402387  0.00949845    -0.76700
O278        O  0.58594094  0.95090392  0.99904914    -0.76300
O279        O  0.42148440  0.93794143  0.99445435    -0.79800
O280        O  0.45496390  0.99623946  0.91370342    -0.79200
O281        O  0.55064433  0.00348935  0.91918761    -0.77600
Eu282      Eu  0.44080999  0.98816716  0.99652887     2.39800
Eu283      Eu  0.55805177  0.99573546  0.00233766     2.39600
Eu284      Eu  0.49597063  0.05057775  0.00528082     2.38400
Eu285      Eu  0.50444000  0.93352640  0.99359465     2.39900
Eu286      Eu  0.50176307  0.99817000  0.94008307     2.39800
O287        O  0.53235532  0.96787967  0.96808643    -0.92000
O288        O  0.46949550  0.02248566  0.97147062    -0.90900
C289        C  0.42811804  0.99261911  0.92126406     1.03200
C290        C  0.57696801  0.00443446  0.92901841     1.01900
C291        C  0.42115041  0.06212695  0.00126948     1.01300
C292        C  0.43191461  0.91185331  0.99266579     1.03300
C293        C  0.57994175  0.92371968  0.99605281     1.02200
C294        C  0.56922945  0.07025327  0.01137903     1.01100
C295        C  0.49891156  0.07440785  0.93266775     1.01100
C296        C  0.50890995  0.92499827  0.91868645     1.03800
H297        H  0.54009573  0.04021716  0.96410716     0.31100
O298        O  0.52812372  0.02614589  0.97416619    -1.04100
H299        H  0.46277993  0.95170405  0.95220707     0.33200
O300        O  0.47356320  0.96367215  0.96571930    -1.06700
N301        N  0.50975778  0.23113758  0.22686202    -0.02600
C302        C  0.51667434  0.22685014  0.25524289     0.00000
C303        C  0.52161376  0.25344236  0.26860221    -0.22900
C304        C  0.51769003  0.27453509  0.24792851    -0.23100
C305        C  0.51024838  0.26031177  0.22254973    -0.00100
H306        H  0.52655519  0.25739666  0.29121886     0.13700
H307        H  0.52030453  0.29770497  0.25118527     0.13700
N308        N  0.50015833  0.75712570  0.23389451    -0.02600
C309        C  0.49820996  0.72803704  0.22934422     0.00000
C310        C  0.49035612  0.71423806  0.25497527    -0.22900
C311        C  0.48808442  0.73542681  0.27583072    -0.23100
C312        C  0.49436661  0.76167608  0.26232773    -0.00100
H313        H  0.48670925  0.69123323  0.25846196     0.13700
H314        H  0.48263604  0.73161682  0.29833074     0.13700
N315        N  0.47351457  0.76850763  0.76433503    -0.02600
C316        C  0.46925593  0.73948601  0.76783552     0.00000
C317        C  0.45931477  0.72751995  0.74205295    -0.22900
C318        C  0.45836063  0.74967706  0.72204132    -0.23100
C319        C  0.46779943  0.77467998  0.73601436    -0.00100
H320        H  0.45334658  0.70514354  0.73785669     0.13700
H321        H  0.45184228  0.74732704  0.69960897     0.13700
N322        N  0.51575454  0.22689502  0.76348361    -0.02600
C323        C  0.52528698  0.22177413  0.73598476     0.00000
C324        C  0.53644769  0.24724041  0.72426591    -0.22900
C325        C  0.53325252  0.26852418  0.74485007    -0.23100
C326        C  0.51992034  0.25582152  0.76871961    -0.00100
H327        H  0.54520228  0.25065826  0.70277054     0.13700
H328        H  0.53966535  0.29102580  0.74215490     0.13700
O329        O  0.00706123  0.40410076  0.03718835    -0.79300
O330        O  0.98871773  0.56816196  0.05080118    -0.80800
O331        O  0.03835053  0.48582655  0.08444582    -0.77800
O332        O  0.94372892  0.48080143  0.07506859    -0.76200
O333        O  0.91260511  0.48005814  0.03623698    -0.78000
O334        O  0.07729508  0.49323070  0.05435258    -0.78900
O335        O  0.98905536  0.53028459  0.08312989    -0.80300
O336        O  0.99794880  0.43483554  0.07517083    -0.80600
Eu337      Eu  0.99366110  0.48452391  0.05562459     2.39200
O338        O  0.96419139  0.51345883  0.02566784    -0.88100
O339        O  0.02881280  0.46121273  0.02675898    -0.91700
C340        C  0.00335553  0.40946869  0.06441987     1.03000
C341        C  0.98807994  0.55765192  0.07678490     1.02800
C342        C  0.06576286  0.48922212  0.07970184     1.02800
C343        C  0.91797189  0.48001204  0.06374781     1.00600
H344        H  0.03268481  0.53147831  0.04593816     0.30400
O345        O  0.02291153  0.51936365  0.03187765    -1.00400
H346        H  0.95881071  0.44006443  0.03099386     0.30400
O347        O  0.97051918  0.45448322  0.02111693    -1.03000
O348        O  0.99334547  0.57698964  0.95676755    -0.80200
O349        O  0.01090237  0.41340999  0.94119332    -0.79800
O350        O  0.07660527  0.54600170  0.00827999    -0.78200
O351        O  0.91155379  0.52831866  0.99179681    -0.81500
O352        O  0.92300051  0.43335373  0.98577056    -0.79400
O353        O  0.08759094  0.45093949  0.00173388    -0.78000
O354        O  0.05589852  0.50328259  0.91978251    -0.79600
O355        O  0.95996256  0.49206069  0.90982247    -0.81500
O356        O  0.08681250  0.50276749  0.95884953    -0.78200
O357        O  0.92280439  0.48190857  0.94144944    -0.80900
O358        O  0.03777041  0.57707749  0.00590908    -0.76600
O359        O  0.05545819  0.41351988  0.99418362    -0.76700
O360        O  0.96200765  0.40249628  0.98541732    -0.76300
O361        O  0.94263337  0.56623481  0.00093766    -0.79800
O362        O  0.00116487  0.54602178  0.91877787    -0.79200
O363        O  0.01299258  0.45265036  0.91048890    -0.77600
Eu364      Eu  0.99307921  0.54826583  0.00179622     2.39800
Eu365      Eu  0.00589589  0.43202810  0.99158258     2.39600
Eu366      Eu  0.05849609  0.49593144  0.00375338     2.38400
Eu367      Eu  0.94110577  0.48368347  0.99119673     2.39900
Eu368      Eu  0.00554270  0.49670178  0.93852660     2.39800
O369        O  0.97665118  0.46152446  0.96215188    -0.92000
O370        O  0.02896004  0.52536465  0.97370738    -0.90900
C371        C  0.99629605  0.57145313  0.92950129     1.03200
C372        C  0.01354261  0.42518346  0.91575907     1.01900
C373        C  0.06520540  0.57165979  0.00788840     1.01300
C374        C  0.91696482  0.55544594  0.99671607     1.03300
C375        C  0.93452598  0.40776400  0.98404328     1.02200
C376        C  0.08127004  0.42381019  0.99782687     1.01100
C377        C  0.08161194  0.50446946  0.93133394     1.01100
C378        C  0.93313263  0.48582398  0.91577740     1.03800
H379        H  0.04941970  0.45747369  0.95654244     0.31100
O380        O  0.03506372  0.46713775  0.96834969    -1.04100
H381        H  0.95711748  0.53087017  0.95493700     0.33200
O382        O  0.96955086  0.51909213  0.96709134    -1.06700
N383        N  0.76678359  0.50340067  0.23231375    -0.02600
C384        C  0.74046528  0.51445547  0.22463871     0.00000
C385        C  0.72546484  0.52323076  0.24915659    -0.22900
C386        C  0.74284462  0.51702471  0.27258592    -0.23100
C387        C  0.76794813  0.50457512  0.26170379    -0.00100
H388        H  0.70364269  0.53197417  0.25012457     0.13700
H389        H  0.73765441  0.52138503  0.29505058     0.13700
N390        N  0.23858141  0.48595064  0.22881302    -0.02600
C391        C  0.26779589  0.48457280  0.22471634     0.00000
C392        C  0.28142614  0.47667073  0.25035106    -0.22900
C393        C  0.26003149  0.47391537  0.27094748    -0.23100
C394        C  0.23375589  0.47995605  0.25734580    -0.00100
H395        H  0.30445129  0.47344966  0.25400124     0.13700
H396        H  0.26377433  0.46926093  0.29365935     0.13700
N397        N  0.23466088  0.50234971  0.76134624    -0.02600
C398        C  0.26236883  0.49307080  0.76695376     0.00000
C399        C  0.27606324  0.48601781  0.74111562    -0.22900
C400        C  0.25669363  0.49118375  0.71920440    -0.23100
C401        C  0.23152261  0.50151538  0.73192397    -0.00100
H402        H  0.29830803  0.47902341  0.73808131     0.13700
H403        H  0.26071076  0.48742675  0.69639463     0.13700
N404        N  0.77183012  0.49235751  0.76159028    -0.02600
C405        C  0.77588018  0.49309124  0.73242925     0.00000
C406        C  0.74962386  0.48884509  0.71826062    -0.22900
C407        C  0.72881232  0.48563419  0.73936019    -0.23100
C408        C  0.74296359  0.48793739  0.76585217    -0.00100
H409        H  0.74584428  0.48822696  0.69508557     0.13700
H410        H  0.70576506  0.48266741  0.73554299     0.13700
N411        N  0.27320640  0.26720799  0.00408241    -0.02600
C412        C  0.24418012  0.27208990  0.00143051     0.00000
C413        C  0.22934355  0.24614155  0.99797214    -0.22900
C414        C  0.24982217  0.22451884  0.99882536    -0.23100
C415        C  0.27663284  0.23790169  0.00302681    -0.00100
H416        H  0.20608408  0.24310079  0.99579425     0.13700
H417        H  0.24531746  0.20154202  0.99638154     0.13700
O418        O  0.50708220  0.45795884  0.08069679    -0.79300
O419        O  0.49445551  0.44232785  0.91557873    -0.80800
O420        O  0.45227953  0.41966033  0.00636975    -0.77800
O421        O  0.54505383  0.41122089  0.99877222    -0.76200
O422        O  0.58381645  0.44184461  0.99256751    -0.78000
O423        O  0.41919718  0.45683963  0.00492604    -0.78900
O424        O  0.49547958  0.41134044  0.95449156    -0.80300
O425        O  0.50113339  0.42036277  0.04864972    -0.80600
Eu426      Eu  0.50048142  0.43998244  0.99933154     2.39200
O427        O  0.52957699  0.46303851  0.96462909    -0.88100
O428        O  0.47676183  0.47471369  0.02805485    -0.91700
C429        C  0.50348379  0.43078728  0.07451144     1.03000
C430        C  0.49384118  0.41653038  0.92700633     1.02800
C431        C  0.42620125  0.42961487  0.00733055     1.02800
C432        C  0.57245432  0.41631162  0.99605447     1.00600
H433        H  0.45624780  0.45673948  0.95985077     0.30400
O434        O  0.47035106  0.46889919  0.96972295    -1.00400
H435        H  0.54684235  0.45613887  0.03670116     0.30400
O436        O  0.53488686  0.46835036  0.02442748    -1.03000
O437        O  0.50021424  0.53887662  0.90805543    -0.80200
O438        O  0.51646392  0.55395614  0.07116628    -0.79800
O439        O  0.41867500  0.50361159  0.95321008    -0.78200
O440        O  0.58365368  0.48531857  0.94075215    -0.81500
O441        O  0.59234532  0.49400317  0.03443418    -0.79400
O442        O  0.42688724  0.50676960  0.04875258    -0.78000
O443        O  0.46525654  0.58484783  0.99078756    -0.79600
O444        O  0.56113688  0.57518189  0.98446219    -0.81500
O445        O  0.42676397  0.55392898  0.99792362    -0.78200
O446        O  0.59213524  0.53622458  0.98463011    -0.80900
O447        O  0.44985699  0.49566847  0.91529991    -0.76600
O448        O  0.46531252  0.50749764  0.08050971    -0.76700
O449        O  0.56125771  0.50246693  0.07226175    -0.76300
O450        O  0.54580672  0.48531562  0.90831999    -0.79800
O451        O  0.50619624  0.57700084  0.93949784    -0.79200
O452        O  0.51597872  0.58563695  0.03278247    -0.77600
Eu453      Eu  0.49984362  0.49250495  0.93510343     2.39800
Eu454      Eu  0.51099311  0.50360331  0.05286283     2.39600
Eu455      Eu  0.44628498  0.50352199  0.99897614     2.38400
Eu456      Eu  0.56378386  0.49166690  0.98950198     2.39900
Eu457      Eu  0.51069002  0.55649632  0.98848399     2.39800
O458        O  0.54016373  0.52691652  0.01804971    -0.92000
O459        O  0.47622111  0.52697724  0.96465492    -0.90900
C460        C  0.50218521  0.56630199  0.91392061     1.03200
C461        C  0.51748546  0.57987987  0.06013449     1.01900
C462        C  0.42420973  0.50007439  0.92599566     1.01300
C463        C  0.57311402  0.48353768  0.91484719     1.03300
C464        C  0.58695975  0.49869434  0.06145716     1.02200
C465        C  0.43781535  0.50776077  0.07461349     1.01100
C466        C  0.43790062  0.57965996  0.99463198     1.01100
C467        C  0.58681648  0.56368507  0.98377188     1.03800
H468        H  0.47122307  0.54683575  0.03498773     0.31100
O469        O  0.48115581  0.53270595  0.02305182    -1.04100
H470        H  0.54671683  0.53158323  0.94545103     0.33200
O471        O  0.53461832  0.52164093  0.95948607    -1.06700
N472        N  0.73948549  0.72995483  0.00244812    -0.02600
C473        C  0.73541444  0.75899776  0.00507033     0.00000
C474        C  0.76037747  0.77194595  0.01596156    -0.22900
C475        C  0.78038390  0.75010140  0.01983562    -0.23100
C476        C  0.76704799  0.72435844  0.01140134    -0.00100
H477        H  0.76385846  0.79465809  0.02102171     0.13700
H478        H  0.80252191  0.75308908  0.02727251     0.13700
N479        N  0.26342416  0.72748100  0.00804297    -0.02600
C480        C  0.26778379  0.75669603  0.01109467     0.00000
C481        C  0.24120381  0.77072973  0.01376429    -0.22900
C482        C  0.22004903  0.74984376  0.01262168    -0.23100
C483        C  0.23411063  0.72354700  0.00899322    -0.00100
H484        H  0.23726266  0.79387120  0.01541911     0.13700
H485        H  0.19690733  0.75363277  0.01454261     0.13700
N486        N  0.73401559  0.25698137  0.99086701    -0.02600
C487        C  0.76346374  0.25813862  0.98971577     0.00000
C488        C  0.77508349  0.23182004  0.99867968    -0.22900
C489        C  0.75197405  0.21390497  0.00512195    -0.23100
C490        C  0.72685542  0.22981221  0.00004527    -0.00100
H491        H  0.79779307  0.22608917  0.00080646     0.13700
H492        H  0.75364389  0.19144391  0.01196403     0.13700
C493        C  0.67368524  0.31391295  0.99754623     0.19600
C494        C  0.64797446  0.31565562  0.01380837    -0.18500
C495        C  0.63053898  0.34048939  0.01263183    -0.10800
C496        C  0.63833449  0.36425462  0.99492615     0.21800
C497        C  0.66413916  0.36269907  0.97883050    -0.20100
C498        C  0.68161960  0.33780310  0.97998208    -0.11000
C499        C  0.62030785  0.39107106  0.99336324    -0.15100
C500        C  0.59137152  0.39044616  0.99746359    -0.29000
C501        C  0.69234142  0.28770340  0.00128131    -0.03300
C502        C  0.71474679  0.28074622  0.98389897    -0.39800
H503        H  0.64151822  0.29783928  0.02784605     0.13000
H504        H  0.61136433  0.34119452  0.02618602     0.12600
H505        H  0.67079928  0.38082780  0.96530221     0.12000
H506        H  0.70158355  0.33790883  0.96766167     0.12300
H507        H  0.63086073  0.41145126  0.98756085     0.15000
H508        H  0.58056941  0.36978691  0.00142475     0.13800
H509        H  0.68797203  0.27385739  0.01991111     0.11500
H510        H  0.72018177  0.29432259  0.96544910     0.13500
C511        C  0.37038159  0.63043922  0.00313827     0.19600
C512        C  0.34015832  0.62627855  0.00108871    -0.18500
C513        C  0.32087121  0.64972450  0.00361310    -0.10800
C514        C  0.33129176  0.67818531  0.00842725     0.21800
C515        C  0.36150666  0.68237334  0.01077431    -0.20100
C516        C  0.38085196  0.65889821  0.00808237    -0.11000
C517        C  0.31124818  0.70347503  0.01285636    -0.15100
C518        C  0.28401716  0.70445017  0.00189295    -0.29000
C519        C  0.38985449  0.60435496  0.00132952    -0.03300
C520        C  0.41862048  0.60564439  0.99560974    -0.39800
H521        H  0.33134668  0.60465412  0.99773395     0.13000
H522        H  0.29779531  0.64518013  0.00267953     0.12600
H523        H  0.37019179  0.70391353  0.01490294     0.12000
H524        H  0.40384602  0.66316247  0.01067478     0.12300
H525        H  0.31910742  0.72146723  0.02592250     0.15000
H526        H  0.27629336  0.68636208  0.98888791     0.13800
H527        H  0.37987690  0.58310866  0.00439892     0.11500
H528        H  0.42883339  0.62654789  0.99152380     0.13500
C529        C  0.68675663  0.66618585  0.99968144     0.19600
C530        C  0.68805832  0.63650839  0.00651456    -0.18500
C531        C  0.66411657  0.61841241  0.00149364    -0.10800
C532        C  0.63819472  0.62976006  0.98964378     0.21800
C533        C  0.63680024  0.65954040  0.98318528    -0.20100
C534        C  0.66079912  0.67761013  0.98809291    -0.11000
C535        C  0.61163454  0.61163306  0.98595477    -0.15100
C536        C  0.61272005  0.58261541  0.98287988    -0.29000
C537        C  0.71202117  0.68500909  0.00673623    -0.03300
C538        C  0.71781124  0.70974147  0.99231273    -0.39800
H539        H  0.70758908  0.62735315  0.01602538     0.13000
H540        H  0.66577832  0.59583257  0.00791988     0.12600
H541        H  0.61693892  0.66892547  0.97464704     0.12000
H542        H  0.65856105  0.70062742  0.98366726     0.12300
H543        H  0.59063457  0.62244478  0.98641374     0.15000
H544        H  0.63361216  0.57180999  0.98110176     0.13800
H545        H  0.72585999  0.67869991  0.02480969     0.11500
H546        H  0.70412393  0.71630212  0.97424956     0.13500
C547        C  0.31534678  0.33946298  0.99932106     0.19600
C548        C  0.31240311  0.36415810  0.98151135    -0.18500
C549        C  0.33141362  0.38776509  0.98419817    -0.10800
C550        C  0.35399625  0.38720007  0.00461503     0.21800
C551        C  0.35634828  0.36305666  0.02336622    -0.20100
C552        C  0.33716102  0.33945499  0.02082516    -0.11000
C553        C  0.37523223  0.41163870  0.00506297    -0.15100
C554        C  0.40342906  0.40728024  0.01118336    -0.29000
C555        C  0.29460506  0.31490594  0.99491774    -0.03300
C556        C  0.29587349  0.28872799  0.00820581    -0.39800
H557        H  0.29548956  0.36508105  0.96512715     0.13000
H558        H  0.32897787  0.40618857  0.96969362     0.12600
H559        H  0.37292992  0.36238522  0.04006761     0.12000
H560        H  0.33960785  0.32146468  0.03575478     0.12300
H561        H  0.36827857  0.43280170  0.99712745     0.15000
H562        H  0.41080608  0.38552312  0.01676200     0.13800
H563        H  0.27726391  0.31854946  0.97931779     0.11500
H564        H  0.31431495  0.28307041  0.02173696     0.13500
C565        C  0.68352334  0.47497598  0.82369388     0.19600
C566        C  0.65964278  0.45591700  0.82570179    -0.18500
C567        C  0.63977544  0.45825983  0.84849057    -0.10800
C568        C  0.64342473  0.47980080  0.86977070     0.21800
C569        C  0.66764992  0.49835175  0.86827508    -0.20100
C570        C  0.68738327  0.49622061  0.84532088    -0.11000
C571        C  0.62255259  0.48320937  0.89395312    -0.15100
C572        C  0.59371503  0.47904887  0.89072883    -0.29000
C573        C  0.70208430  0.47360801  0.79738665    -0.03300
C574        C  0.72823589  0.48667446  0.79446966    -0.39800
H575        H  0.65610278  0.43938733  0.80932368     0.13000
H576        H  0.62167134  0.44317325  0.84948794     0.12600
H577        H  0.67084891  0.51510120  0.88449347     0.12000
H578        H  0.70499098  0.51181493  0.84424188     0.12300
H579        H  0.63101142  0.49116572  0.91451278     0.15000
H580        H  0.58486666  0.47326739  0.86963394     0.13800
H581        H  0.69326859  0.46153560  0.77912130     0.11500
H582        H  0.73881903  0.49684175  0.81288764     0.13500
C583        C  0.37430486  0.49030922  0.85865785     0.19600
C584        C  0.37675090  0.47277379  0.83394846    -0.18500
C585        C  0.35309425  0.46877792  0.81532774    -0.10800
C586        C  0.32632825  0.48257575  0.82050725     0.21800
C587        C  0.32379801  0.50059309  0.84500930    -0.20100
C588        C  0.34755741  0.50440669  0.86392814    -0.11000
C589        C  0.30261014  0.47793407  0.79885701    -0.15100
C590        C  0.27855618  0.49451334  0.79508897    -0.29000
C591        C  0.40020998  0.49301027  0.87809030    -0.03300
C592        C  0.39873443  0.50076124  0.90620543    -0.39800
H593        H  0.39701708  0.46179139  0.82915388     0.13000
H594        H  0.35589769  0.45499999  0.79648416     0.12600
H595        H  0.30362356  0.51166298  0.84971794     0.12000
H596        H  0.34491298  0.51869145  0.88234067     0.12300
H597        H  0.30674851  0.46093439  0.78305334     0.15000
H598        H  0.27267534  0.51112609  0.81066342     0.13800
H599        H  0.42111099  0.48630292  0.86938655     0.11500
H600        H  0.37788099  0.50606965  0.91578057     0.13500
C601        C  0.36819658  0.50829652  0.12230248     0.19600
C602        C  0.33960213  0.49811308  0.11825469    -0.18500
C603        C  0.32041562  0.49548118  0.14176645    -0.10800
C604        C  0.32941964  0.50332686  0.16991716     0.21800
C605        C  0.35755243  0.51478416  0.17363424    -0.20100
C606        C  0.37666337  0.51737819  0.15021264    -0.11000
C607        C  0.31137396  0.49851351  0.19638002    -0.15100
C608        C  0.28309895  0.49047696  0.19679554    -0.29000
C609        C  0.38851156  0.50890036  0.09705791    -0.03300
C610        C  0.41777315  0.50891911  0.09974955    -0.39800
H611        H  0.33233545  0.49133702  0.09692894     0.13000
H612        H  0.29902444  0.48652769  0.13777666     0.12600
H613        H  0.36502519  0.52138469  0.19495101     0.12000
H614        H  0.39799780  0.52648700  0.15422276     0.12300
H615        H  0.32233743  0.50187706  0.21699995     0.15000
H616        H  0.27082967  0.48858456  0.17679715     0.13800
H617        H  0.37898783  0.50778236  0.07548463     0.11500
H618        H  0.42772301  0.50863642  0.12110483     0.13500
C619        C  0.63748023  0.51795156  0.12582955     0.19600
C620        C  0.63580746  0.53968869  0.14703019    -0.18500
C621        C  0.65897175  0.54470463  0.16594647    -0.10800
C622        C  0.68430052  0.52777961  0.16458509     0.21800
C623        C  0.68647104  0.50634234  0.14291532    -0.20100
C624        C  0.66323775  0.50145356  0.12371069    -0.11000
C625        C  0.70637716  0.53214269  0.18776698    -0.15100
C626        C  0.72674408  0.51260906  0.19555336    -0.29000
C627        C  0.61154080  0.51301365  0.10706311    -0.03300
C628        C  0.61259167  0.50025709  0.08086691    -0.39800
H629        H  0.61634189  0.55276703  0.14914351     0.13000
H630        H  0.65663937  0.56133366  0.18241652     0.12600
H631        H  0.70574787  0.49306434  0.14089974     0.12000
H632        H  0.66529260  0.48422368  0.10790662     0.12300
H633        H  0.70340949  0.55105014  0.20159924     0.15000
H634        H  0.73125140  0.49362891  0.18239999     0.13800
H635        H  0.59096576  0.52202612  0.11435315     0.11500
H636        H  0.63322391  0.49288554  0.07220389     0.13500
C637        C  0.82607555  0.66530530  0.02195752     0.19600
C638        C  0.85028704  0.66399346  0.04051892    -0.18500
C639        C  0.87171268  0.64295057  0.03672847    -0.10800
C640        C  0.86940725  0.62230800  0.01451276     0.21800
C641        C  0.84480391  0.62288753  0.99625046    -0.20100
C642        C  0.82332240  0.64425963  0.99988711    -0.11000
C643        C  0.89401369  0.60181313  0.01047171    -0.15100
C644        C  0.89175330  0.57543395  0.99801223    -0.29000
C645        C  0.80607478  0.69048677  0.02539751    -0.03300
C646        C  0.78208210  0.69581644  0.00941608    -0.39800
H647        H  0.85311869  0.67987897  0.05764988     0.13000
H648        H  0.89041598  0.64302533  0.05108442     0.12600
H649        H  0.84259396  0.60761215  0.97854138     0.12000
H650        H  0.80523177  0.64457142  0.98488433     0.12300
H651        H  0.91481242  0.60823996  0.01977464     0.15000
H652        H  0.87081743  0.56760323  0.99032890     0.13800
H653        H  0.81236314  0.70644439  0.04161227     0.11500
H654        H  0.77389373  0.67995082  0.99407146     0.13500
C655        C  0.82791617  0.31075708  0.97651924     0.19600
C656        C  0.85617831  0.30826901  0.96529697    -0.18500
C657        C  0.87522483  0.33205397  0.96560601    -0.10800
C658        C  0.86641341  0.35881201  0.97752525     0.21800
C659        C  0.83790338  0.36151171  0.98790943    -0.20100
C660        C  0.81889515  0.33777054  0.98763031    -0.11000
C661        C  0.88613535  0.38437796  0.97969709    -0.15100
C662        C  0.91530251  0.38223561  0.98040543    -0.29000
C663        C  0.80955074  0.28420665  0.97877863    -0.03300
C664        C  0.78052698  0.28472782  0.98276491    -0.39800
H665        H  0.86367994  0.28772583  0.95659528     0.13000
H666        H  0.89670794  0.32931056  0.95649805     0.12600
H667        H  0.83055774  0.38187962  0.99712543     0.12000
H668        H  0.79764237  0.34052983  0.99721865     0.12300
H669        H  0.87617001  0.40562435  0.98241172     0.15000
H670        H  0.92565717  0.36107758  0.97920218     0.13800
H671        H  0.82068275  0.26342915  0.97780057     0.11500
H672        H  0.76893584  0.30519801  0.98168725     0.13500
C673        C  0.17242870  0.66691496  0.00267463     0.19600
C674        C  0.14663376  0.66576794  0.98640254    -0.18500
C675        C  0.12740227  0.64247882  0.98946119    -0.10800
C676        C  0.13345457  0.61990109  0.00916578     0.21800
C677        C  0.15939694  0.62075820  0.02521460    -0.20100
C678        C  0.17866741  0.64418955  0.02222412    -0.11000
C679        C  0.11365155  0.59465993  0.01221015    -0.15100
C680        C  0.08472810  0.59706229  0.00864581    -0.29000
C681        C  0.19079268  0.69331998  0.00020214    -0.03300
C682        C  0.21887426  0.69505798  0.00840375    -0.39800
H683        H  0.14129732  0.68302697  0.97125597     0.13000
H684        H  0.10804537  0.64201768  0.97604940     0.12600
H685        H  0.16450211  0.60350002  0.04043307     0.12000
H686        H  0.19793684  0.64471370  0.03571906     0.12300
H687        H  0.12315124  0.57365747  0.01746091     0.15000
H688        H  0.07500646  0.61833602  0.00529329     0.13800
H689        H  0.18038990  0.71251179  0.99114047     0.11500
H690        H  0.23059904  0.67580005  0.01533361     0.13500
C691        C  0.18993056  0.33476678  0.98920462     0.19600
C692        C  0.16574615  0.33756122  0.97086199    -0.18500
C693        C  0.14823659  0.36214465  0.97211852    -0.10800
C694        C  0.15428656  0.38443188  0.99208313     0.21800
C695        C  0.17956035  0.38281736  0.00902499    -0.20100
C696        C  0.19724488  0.35806908  0.00778512    -0.11000
C697        C  0.13314121  0.40822778  0.99651283    -0.15100
C698        C  0.10457173  0.40210962  0.99645944    -0.29000
C699        C  0.20585290  0.30674407  0.98851651    -0.03300
C700        C  0.22984261  0.30070838  0.00401629    -0.39800
H701        H  0.15988419  0.32029975  0.95594637     0.13000
H702        H  0.12943392  0.36336100  0.95796334     0.12600
H703        H  0.18482112  0.40001712  0.02421226     0.12000
H704        H  0.21589925  0.35717752  0.02202587     0.12300
H705        H  0.14088523  0.43022284  0.00047036     0.15000
H706        H  0.09757340  0.37960099  0.99418810     0.13800
H707        H  0.19739386  0.29004808  0.97406619     0.11500
H708        H  0.23984792  0.31683025  0.01792067     0.13500
C709        C  0.84118627  0.48680830  0.80686889     0.19600
C710        C  0.85721665  0.46288843  0.81691208    -0.18500
C711        C  0.87987283  0.46670204  0.83680904    -0.10800
C712        C  0.88745112  0.49468137  0.84653920     0.21800
C713        C  0.87209941  0.51879131  0.83580549    -0.20100
C714        C  0.84889201  0.51490045  0.81636781    -0.11000
C715        C  0.91088015  0.49876825  0.86837079    -0.15100
C716        C  0.91222125  0.48158207  0.89191284    -0.29000
C717        C  0.81772258  0.48176441  0.78528254    -0.03300
C718        C  0.79341391  0.49787181  0.78366980    -0.39800
H719        H  0.85196498  0.44111654  0.80956015     0.13000
H720        H  0.89167570  0.44778396  0.84441753     0.12600
H721        H  0.87770646  0.54055392  0.84291985     0.12000
H722        H  0.83739620  0.53384310  0.80838796     0.12300
H723        H  0.92540890  0.51736535  0.86647286     0.15000
H724        H  0.89549492  0.46512518  0.89513958     0.13800
H725        H  0.81989850  0.46325112  0.77081610     0.11500
H726        H  0.78918982  0.51449961  0.79982150     0.13500
C727        C  0.18270345  0.50288882  0.82696642     0.19600
C728        C  0.18449806  0.49356258  0.85597725    -0.18500
C729        C  0.16038644  0.49520339  0.87450679    -0.10800
C730        C  0.13357888  0.50618470  0.86448429     0.21800
C731        C  0.13171644  0.51551389  0.83547168    -0.20100
C732        C  0.15592459  0.51406255  0.81695683    -0.11000
C733        C  0.10682963  0.50634900  0.88306371    -0.15100
C734        C  0.10765570  0.50717115  0.91234522    -0.29000
C735        C  0.20838243  0.49816224  0.80750705    -0.03300
C736        C  0.21205173  0.51105933  0.78141467    -0.39800
H737        H  0.20458362  0.48442427  0.86425534     0.13000
H738        H  0.16265215  0.48684954  0.89634809     0.12600
H739        H  0.11130133  0.52366151  0.82697000     0.12000
H740        H  0.15309390  0.52074263  0.79463169     0.12300
H741        H  0.08582622  0.50567560  0.87221554     0.15000
H742        H  0.12851369  0.50909456  0.92326025     0.13800
H743        H  0.22436952  0.48230701  0.81457845     0.11500
H744        H  0.19613431  0.52670338  0.77383730     0.13500
C745        C  0.17193298  0.48396461  0.17900055     0.19600
C746        C  0.14214696  0.47844936  0.18265139    -0.18500
C747        C  0.12267801  0.48177995  0.15945207    -0.10800
C748        C  0.13270557  0.49033624  0.13173396     0.21800
C749        C  0.16258224  0.49573628  0.12823083    -0.20100
C750        C  0.18197283  0.49251588  0.15144467    -0.11000
C751        C  0.11337220  0.49304241  0.10565703    -0.15100
C752        C  0.08452846  0.48787425  0.10584416    -0.29000
C753        C  0.19216119  0.47914144  0.20380835    -0.03300
C754        C  0.21768452  0.49332114  0.20658400    -0.39800
H755        H  0.13388726  0.47156129  0.20358426     0.13000
H756        H  0.10003100  0.47725579  0.16363680     0.12600
H757        H  0.17110628  0.50207102  0.10724222     0.12000
H758        H  0.20490256  0.49596936  0.14743035     0.12300
H759        H  0.12349101  0.49913333  0.08522379     0.15000
H760        H  0.07360536  0.48216118  0.12584156     0.13800
H761        H  0.18601715  0.46309468  0.22002017     0.11500
H762        H  0.22399282  0.50931028  0.19042275     0.13500
C763        C  0.82032634  0.49718722  0.16871272     0.19600
C764        C  0.81916744  0.50546617  0.13940881    -0.18500
C765        C  0.84258477  0.50022701  0.12083311    -0.10800
C766        C  0.86796823  0.48654116  0.13113423     0.21800
C767        C  0.86931399  0.47847825  0.16053781    -0.20100
C768        C  0.84574315  0.48357755  0.17914770    -0.11000
C769        C  0.89397906  0.48236241  0.11225265    -0.15100
C770        C  0.89224880  0.48017366  0.08311373    -0.29000
C771        C  0.79540431  0.50512498  0.18776852    -0.03300
C772        C  0.78978679  0.49284754  0.21373336    -0.39800
H773        H  0.80012459  0.51643065  0.13088176     0.13000
H774        H  0.84099484  0.50784606  0.09866928     0.12600
H775        H  0.88878769  0.46842277  0.16920031     0.12000
H776        H  0.84799432  0.47765768  0.20175798     0.12300
H777        H  0.91518072  0.48143576  0.12268881     0.15000
H778        H  0.87106921  0.47968246  0.07266725     0.13800
H779        H  0.78130292  0.52244183  0.18013938     0.11500
H780        H  0.80389363  0.47587278  0.22203058     0.13500
C781        C  0.48875168  0.36612723  0.85887480     0.19600
C782        C  0.48107271  0.37071290  0.82974651    -0.18500
C783        C  0.48489767  0.34888707  0.80903561    -0.10800
C784        C  0.49638131  0.32162858  0.81672160     0.21800
C785        C  0.50246765  0.31612883  0.84615996    -0.20100
C786        C  0.49872487  0.33816703  0.86705079    -0.11000
C787        C  0.50484773  0.30159343  0.79271395    -0.15100
C788        C  0.50960504  0.27257303  0.79466211    -0.29000
C789        C  0.48837777  0.39187493  0.87888918    -0.03300
C790        C  0.49171682  0.39045183  0.90792882    -0.39800
H791        H  0.47311554  0.39174773  0.82267954     0.13000
H792        H  0.47987302  0.35377614  0.78656644     0.12600
H793        H  0.51162844  0.29550215  0.85286080     0.12000
H794        H  0.50509655  0.33349255  0.88914557     0.12300
H795        H  0.50702421  0.31190529  0.77162440     0.15000
H796        H  0.50516004  0.26124408  0.81481831     0.13800
H797        H  0.48579297  0.41321822  0.86901254     0.11500
H798        H  0.49326560  0.36942991  0.91851665     0.13500
C799        C  0.49246617  0.63585609  0.86715920     0.19600
C800        C  0.48162745  0.66401261  0.87220085    -0.18500
C801        C  0.47689791  0.68338619  0.84908745    -0.10800
C802        C  0.48310561  0.67490517  0.82044250     0.21800
C803        C  0.49410804  0.64690721  0.81552551    -0.20100
C804        C  0.49904226  0.62774732  0.83849241    -0.11000
C805        C  0.47745238  0.69363449  0.79473251    -0.15100
C806        C  0.47463950  0.72284693  0.79510794    -0.29000
C807        C  0.49692265  0.61564980  0.89214177    -0.03300
C808        C  0.49911835  0.58651777  0.88914316    -0.39800
H809        H  0.47642960  0.67090160  0.89405139     0.13000
H810        H  0.46786152  0.70459002  0.85369496     0.12600
H811        H  0.49915085  0.63981429  0.79369680     0.12000
H812        H  0.50837859  0.60680451  0.83347773     0.12300
H813        H  0.47679226  0.68248652  0.77400920     0.15000
H814        H  0.47727189  0.73476904  0.81522527     0.13800
H815        H  0.49724067  0.62498205  0.91379663     0.11500
H816        H  0.49707186  0.57658412  0.86793214     0.13500
C817        C  0.51882509  0.66626536  0.17614618     0.19600
C818        C  0.53263339  0.63944204  0.18066837    -0.18500
C819        C  0.53550656  0.61948194  0.15813710    -0.10800
C820        C  0.52460733  0.62567886  0.13038575     0.21800
C821        C  0.51168967  0.65307611  0.12537073    -0.20100
C822        C  0.50882870  0.67321193  0.14808505    -0.11000
C823        C  0.52486254  0.60177445  0.10858852    -0.15100
C824        C  0.51972677  0.60512213  0.08002617    -0.29000
C825        C  0.51305426  0.68456626  0.20203615    -0.03300
C826        C  0.50514986  0.71280010  0.20175018    -0.39800
H827        H  0.54051646  0.63346722  0.20203823     0.13000
H828        H  0.54553942  0.59864651  0.16269383     0.12600
H829        H  0.50254044  0.65860453  0.10445560     0.12000
H830        H  0.49761851  0.69345564  0.14385510     0.12300
H831        H  0.52913559  0.57998283  0.11675177     0.15000
H832        H  0.51680960  0.62667173  0.07083746     0.13800
H833        H  0.51577648  0.67381241  0.22286140     0.11500
H834        H  0.50449762  0.72488556  0.18154979     0.13500
C835        C  0.49943553  0.36046176  0.11966421     0.19600
C836        C  0.51382207  0.33361338  0.11818007    -0.18500
C837        C  0.51262242  0.31408250  0.14147329    -0.10800
C838        C  0.49650373  0.32098955  0.16646607     0.21800
C839        C  0.48127099  0.34738761  0.16737257    -0.20100
C840        C  0.48260396  0.36690345  0.14421387    -0.11000
C841        C  0.49724795  0.30297621  0.19313973    -0.15100
C842        C  0.50572076  0.27501276  0.19426068    -0.29000
C843        C  0.50201972  0.38122921  0.09523182    -0.03300
C844        C  0.50151801  0.41027080  0.09903469    -0.39800
H845        H  0.52676134  0.32815975  0.09933770     0.13000
H846        H  0.52516666  0.29425265  0.14015987     0.12600
H847        H  0.46865287  0.35317944  0.18633205     0.12000
H848        H  0.47044778  0.38699721  0.14559817     0.12300
H849        H  0.49094408  0.31367534  0.21316419     0.15000
H850        H  0.50995056  0.26291262  0.17454281     0.13800
H851        H  0.50564705  0.37233708  0.07370333     0.11500
H852        H  0.49999867  0.41933016  0.12072691     0.13500
C853        C  0.66242530  0.17771728  0.01601137     0.19600
C854        C  0.65859664  0.15511807  0.03615285    -0.18500
C855        C  0.63385110  0.13758855  0.03534355    -0.10800
C856        C  0.61239642  0.14194713  0.01401313     0.21800
C857        C  0.61531286  0.16545733  0.99475219    -0.20100
C858        C  0.64022092  0.18313664  0.99555214    -0.11000
C859        C  0.58779535  0.12120593  0.01077404    -0.15100
C860        C  0.59172280  0.09263780  0.01564623    -0.29000
C861        C  0.69085393  0.19320086  0.01607041    -0.03300
C862        C  0.69683833  0.21774381  0.00122356    -0.39800
H863        H  0.67516426  0.15055837  0.05228512     0.13000
H864        H  0.63179464  0.12028840  0.05119620     0.12600
H865        H  0.59893877  0.16933607  0.97825794     0.12000
H866        H  0.64234874  0.20012193  0.97944030     0.12300
H867        H  0.56716766  0.12899373  0.00224723     0.15000
H868        H  0.61320774  0.08475659  0.02156210     0.13800
H869        H  0.70799246  0.18345300  0.02907270     0.11500
H870        H  0.67985799  0.22898795  0.98938699     0.13500
C871        C  0.32205107  0.82083755  0.01638904     0.19600
C872        C  0.34553120  0.81626821  0.99737823    -0.18500
C873        C  0.36605144  0.83841102  0.99257576    -0.10800
C874        C  0.36333226  0.86549419  0.00659684     0.21800
C875        C  0.33997192  0.86986289  0.02552482    -0.20100
C876        C  0.31972256  0.84781864  0.03047240    -0.11000
C877        C  0.38369291  0.89013564  0.00174692    -0.15100
C878        C  0.41154177  0.88693308  0.99356833    -0.29000
C879        C  0.29823196  0.79941920  0.02107601    -0.03300
C880        C  0.29579198  0.77281278  0.00886216    -0.39800
H881        H  0.34794482  0.79601287  0.98577005     0.13000
H882        H  0.38346059  0.83449630  0.97732395     0.12600
H883        H  0.33733197  0.89049512  0.03655788     0.12000
H884        H  0.30179526  0.85212811  0.04507461     0.12300
H885        H  0.37592118  0.91176002  0.00724147     0.15000
H886        H  0.42033897  0.86536445  0.98981513     0.13800
H887        H  0.28064750  0.80679931  0.03493779     0.11500
H888        H  0.31322167  0.76365967  0.99604784     0.13500
C889        C  0.67893575  0.82022308  0.99353431     0.19600
C890        C  0.68132718  0.84930054  0.98461845    -0.18500
C891        C  0.65686135  0.86706475  0.98310949    -0.10800
C892        C  0.62932911  0.85627821  0.99108130     0.21800
C893        C  0.62668416  0.82693257  0.99914482    -0.20100
C894        C  0.65126130  0.80903083  0.00055072    -0.11000
C895        C  0.60319948  0.87521537  0.99139502    -0.15100
C896        C  0.60517924  0.90411935  0.99537637    -0.29000
C897        C  0.70617171  0.80330436  0.99693768    -0.03300
C898        C  0.70748860  0.77417226  0.99929116    -0.39800
H899        H  0.70232523  0.85842937  0.97894471     0.13000
H900        H  0.65973012  0.88918903  0.97558352     0.12600
H901        H  0.60568198  0.81807171  0.00518260     0.12000
H902        H  0.64849755  0.78688439  0.00801839     0.12300
H903        H  0.58190903  0.86504604  0.98953049     0.15000
H904        H  0.62626350  0.91420131  0.99888120     0.13800
H905        H  0.72626987  0.81574304  0.99732476     0.11500
H906        H  0.68794649  0.76113525  0.99702622     0.13500
C907        C  0.33087490  0.17403876  0.01171373     0.19600
C908        C  0.32582555  0.14441702  0.01732178    -0.18500
C909        C  0.34834070  0.12424299  0.01605045    -0.10800
C910        C  0.37669227  0.13311686  0.00889908     0.21800
C911        C  0.38212617  0.16290837  0.00425331    -0.20100
C912        C  0.35941899  0.18324822  0.00544906    -0.11000
C913        C  0.40101898  0.11190268  0.00704200    -0.15100
C914        C  0.39698336  0.08328573  0.00163941    -0.29000
C915        C  0.30521966  0.19366145  0.01214766    -0.03300
C916        C  0.30480475  0.22211871  0.00493549    -0.39800
H917        H  0.30416773  0.13667947  0.02255157     0.13000
H918        H  0.34336133  0.10178784  0.02107228     0.12600
H919        H  0.40391873  0.17039267  0.99924896     0.12000
H920        H  0.36438693  0.20588000  0.00133300     0.12300
H921        H  0.42298076  0.12024882  0.00989509     0.15000
H922        H  0.37533401  0.07483226  0.99743120     0.13800
H923        H  0.28483847  0.18341463  0.01828152     0.11500
H924        H  0.32467240  0.23376853  0.99986101     0.13500
C925        C  0.51002070  0.17572222  0.82887692     0.19600
C926        C  0.51756331  0.17753468  0.85836742    -0.18500
C927        C  0.51443370  0.15346169  0.87683191    -0.10800
C928        C  0.50366325  0.12676309  0.86619883     0.21800
C929        C  0.49617916  0.12495762  0.83668652    -0.20100
C930        C  0.49921608  0.14906949  0.81823813    -0.11000
C931        C  0.50138384  0.10003560  0.88470402    -0.15100
C932        C  0.49991968  0.10071919  0.91391158    -0.29000
C933        C  0.51626713  0.20113922  0.80959664    -0.03300
C934        C  0.50460789  0.20496713  0.78301327    -0.39800
H935        H  0.52642181  0.19757521  0.86708710     0.13000
H936        H  0.52140713  0.15574341  0.89912878     0.12600
H937        H  0.48824003  0.10464308  0.82774699     0.12000
H938        H  0.49403067  0.14627126  0.79552560     0.12300
H939        H  0.50044115  0.07909765  0.87381474     0.15000
H940        H  0.49940731  0.12151473  0.92498930     0.13800
H941        H  0.53234039  0.21679498  0.81710305     0.11500
H942        H  0.48887066  0.18950464  0.77466469     0.13500
C943        C  0.47959503  0.83739946  0.81045170     0.19600
C944        C  0.46558647  0.86446787  0.80858388    -0.18500
C945        C  0.47348150  0.88736365  0.82685326    -0.10800
C946        C  0.49536799  0.88370231  0.84771816     0.21800
C947        C  0.50997797  0.85680233  0.84927739    -0.20100
C948        C  0.50209077  0.83383869  0.83093755    -0.11000
C949        C  0.50105177  0.90786919  0.86838227    -0.15100
C950        C  0.51045450  0.90300920  0.89553460    -0.29000
C951        C  0.46999684  0.81403438  0.79027382    -0.03300
C952        C  0.48359100  0.78846297  0.78626236    -0.39800
H953        H  0.44832199  0.86794261  0.79292151     0.13000
H954        H  0.46189539  0.90780889  0.82516807     0.12600
H955        H  0.52752309  0.85333695  0.86456925     0.12000
H956        H  0.51357958  0.81348420  0.83321603     0.12300
H957        H  0.49364848  0.92954708  0.86249099     0.15000
H958        H  0.51578069  0.88104021  0.90236743     0.13800
H959        H  0.45085368  0.81843124  0.77709976     0.11500
H960        H  0.50182693  0.78202226  0.79970436     0.13500
C961        C  0.49359875  0.81028314  0.17045535     0.19600
C962        C  0.47870155  0.81017146  0.14381020    -0.18500
C963        C  0.48044418  0.83399778  0.12490519    -0.10800
C964        C  0.49700934  0.85866017  0.13239473     0.21800
C965        C  0.51127166  0.85914945  0.15930680    -0.20100
C966        C  0.50973298  0.83526071  0.17811941    -0.11000
C967        C  0.49886122  0.88464849  0.11321444    -0.15100
C968        C  0.49798371  0.88290025  0.08409081    -0.29000
C969        C  0.49035619  0.78468295  0.19013575    -0.03300
C970        C  0.50745424  0.77953068  0.21328086    -0.39800
H971        H  0.46558167  0.79156821  0.13760606     0.13000
H972        H  0.46832648  0.83328761  0.10475491     0.12600
H973        H  0.52374246  0.87810312  0.16577682     0.12000
H974        H  0.52070710  0.83694385  0.19879892     0.12300
H975        H  0.50228274  0.90570190  0.12338419     0.15000
H976        H  0.49654787  0.86171534  0.07375354     0.13800
H977        H  0.47254187  0.76967004  0.18590935     0.11500
H978        H  0.52524540  0.79406296  0.21863822     0.13500
C979        C  0.50863247  0.16434640  0.17754562     0.19600
C980        C  0.51246682  0.13433051  0.18137192    -0.18500
C981        C  0.50780704  0.11503138  0.15834972    -0.10800
C982        C  0.49936840  0.12543728  0.13076844     0.21800
C983        C  0.49586075  0.15553675  0.12693900    -0.20100
C984        C  0.50042279  0.17479114  0.14998100    -0.11000
C985        C  0.49602312  0.10605833  0.10503347    -0.15100
C986        C  0.49339825  0.07692158  0.10678752    -0.29000
C987        C  0.51486617  0.18435337  0.20214400    -0.03300
C988        C  0.50149862  0.21017250  0.20506250    -0.39800
H989        H  0.51924852  0.12579027  0.20224197     0.13000
H990        H  0.51175538  0.09219217  0.16224800     0.12600
H991        H  0.48993255  0.16426362  0.10588771     0.12000
H992        H  0.49833072  0.19787858  0.14584430     0.12300
H993        H  0.49626613  0.11624351  0.08372414     0.15000
H994        H  0.49208129  0.06630504  0.12776508     0.13800
H995        H  0.53111064  0.17777981  0.21796640     0.11500
H996        H  0.48526606  0.21668331  0.18921282     0.13500
C997        C  0.32853628  0.96086977  0.17741253     0.19600
C998        C  0.32970370  0.94700469  0.15031820    -0.18500
C999        C  0.35355513  0.95070064  0.13201812    -0.10800
C1000       C  0.37699041  0.96853415  0.14026208     0.21800
C1001       C  0.37671537  0.98128273  0.16795433    -0.20100
C1002       C  0.35262054  0.97774126  0.18633486    -0.11000
C1003       C  0.40177741  0.97390824  0.12020743    -0.15100
C1004       C  0.39813003  0.97511434  0.09115242    -0.29000
C1005       C  0.30106946  0.95795443  0.19435418    -0.03300
C1006       C  0.29619510  0.96908268  0.22094535    -0.39800
H1007       H  0.31176643  0.93355651  0.14295461     0.13000
H1008       H  0.35354263  0.93955298  0.11134993     0.12600
H1009       H  0.39476552  0.99474719  0.17499833     0.12000
H1010       H  0.35288403  0.98877139  0.20701300     0.12300
H1011       H  0.42314164  0.97788114  0.12955721     0.15000
H1012       H  0.37641948  0.97307707  0.08202802     0.13800
H1013       H  0.28357769  0.94622823  0.18370460     0.11500
H1014       H  0.31357153  0.97992184  0.23256367     0.13500
C1015       C  0.62039208  0.01266387  0.85756243     0.19600
C1016       C  0.61575836  0.00312176  0.82894438    -0.18500
C1017       C  0.63807238  0.00468857  0.80825059    -0.10800
C1018       C  0.66543120  0.01626733  0.81580503     0.21800
C1019       C  0.66963418  0.02656761  0.84421206    -0.20100
C1020       C  0.64749154  0.02485477  0.86482360    -0.11000
C1021       C  0.69070784  0.01770742  0.79564982    -0.15100
C1022       C  0.69255700  0.00535365  0.76914198    -0.29000
C1023       C  0.59645485  0.00997354  0.87910591    -0.03300
C1024       C  0.60097486  0.00816126  0.90799710    -0.39800
H1025       H  0.59491970  0.99398500  0.82270374     0.13000
H1026       H  0.63371357  0.99680512  0.78659260     0.12600
H1027       H  0.69036264  0.03581957  0.85066043     0.12000
H1028       H  0.65168706  0.03341932  0.88627613     0.12300
H1029       H  0.70978369  0.02892012  0.80397728     0.15000
H1030       H  0.67388206  0.99490773  0.75922001     0.13800
H1031       H  0.57441617  0.00809860  0.87072040     0.11500
H1032       H  0.62293690  0.00855075  0.91666808     0.13500
C1033       C  0.38816604  0.97912973  0.84878739     0.19600
C1034       C  0.38909101  0.98885315  0.81984040    -0.18500
C1035       C  0.36733493  0.98053882  0.79998588    -0.10800
C1036       C  0.34460124  0.96190435  0.80878651     0.21800
C1037       C  0.34461758  0.95123815  0.83731198    -0.20100
C1038       C  0.36597066  0.95973841  0.85704950    -0.11000
C1039       C  0.31979141  0.95333117  0.78986706    -0.15100
C1040       C  0.31035831  0.96834420  0.76655354    -0.29000
C1041       C  0.41112411  0.98793450  0.86991674    -0.03300
C1042       C  0.40550214  0.99000353  0.89855402    -0.39800
H1043       H  0.40639437  0.00321814  0.81273176     0.13000
H1044       H  0.36847045  0.98860419  0.77794840     0.12600
H1045       H  0.32764252  0.93656008  0.84461026     0.12000
H1046       H  0.36521549  0.95067342  0.87872707     0.12300
H1047       H  0.30681066  0.93501631  0.79734430     0.15000
H1048       H  0.32282869  0.98649524  0.75803945     0.13800
H1049       H  0.43303037  0.99173896  0.86192539     0.11500
H1050       H  0.38325261  0.98761328  0.90611189     0.13500
C1051       C  0.51935741  0.13191496  0.36352402     0.19600
C1052       C  0.54345479  0.15061434  0.36316404    -0.18500
C1053       C  0.54742144  0.17024174  0.34040336    -0.10800
C1054       C  0.52732715  0.17178151  0.31747148     0.21800
C1055       C  0.50331040  0.15274566  0.31748343    -0.20100
C1056       C  0.49936089  0.13298701  0.34031706    -0.11000
C1057       C  0.53076886  0.19576857  0.29616801    -0.15100
C1058       C  0.51562842  0.19883400  0.27127426    -0.29000
C1059       C  0.51543091  0.11250551  0.38900004    -0.03300
C1060       C  0.49996210  0.08773023  0.38808788    -0.39800
H1061       H  0.55913667  0.15027714  0.38075408     0.13000
H1062       H  0.56596238  0.18483428  0.34111128     0.12600
H1063       H  0.48690843  0.15375893  0.30066752     0.12000
H1064       H  0.48007486  0.11946150  0.34018340     0.12300
H1065       H  0.54616842  0.21273420  0.30209326     0.15000
H1066       H  0.50155584  0.18163346  0.26334364     0.13800
H1067       H  0.52724948  0.11787398  0.40875400     0.11500
H1068       H  0.49006510  0.08061528  0.36790581     0.13500
C1069       C  0.48260758  0.82309280  0.31838221     0.19600
C1070       C  0.46380295  0.82555719  0.34215437    -0.18500
C1071       C  0.46329722  0.85084474  0.35870081    -0.10800
C1072       C  0.48198962  0.87412462  0.35207001     0.21800
C1073       C  0.49974765  0.87244241  0.32743340    -0.20100
C1074       C  0.50030247  0.84699809  0.31078592    -0.11000
C1075       C  0.48434972  0.89947117  0.37162435    -0.15100
C1076       C  0.48286719  0.89602830  0.40055021    -0.29000
C1077       C  0.48392853  0.79463741  0.30339499    -0.03300
C1078       C  0.49423202  0.79073958  0.27640658    -0.39800
H1079       H  0.44973021  0.80762068  0.34826164     0.13000
H1080       H  0.44862836  0.85194460  0.37702267     0.12600
H1081       H  0.51418073  0.89027405  0.32189249     0.12000
H1082       H  0.51538100  0.84583704  0.29285176     0.12300
H1083       H  0.48942250  0.92064812  0.36236455     0.15000
H1084       H  0.47999702  0.87439214  0.40968840     0.13800
H1085       H  0.47491255  0.77621120  0.31507117     0.11500
H1086       H  0.50174084  0.80926545  0.26390183     0.13500
C1087       C  0.53161860  0.16404314  0.67410539     0.19600
C1088       C  0.54780955  0.16345688  0.64821175    -0.18500
C1089       C  0.54355858  0.14151554  0.62759612    -0.10800
C1090       C  0.52290752  0.11940655  0.63233879     0.21800
C1091       C  0.50708873  0.11957378  0.65841397    -0.20100
C1092       C  0.51118626  0.14168783  0.67901034    -0.11000
C1093       C  0.51800398  0.09540528  0.61109007    -0.15100
C1094       C  0.52264271  0.09818293  0.58231851    -0.29000
C1095       C  0.53610258  0.18921395  0.69419284    -0.03300
C1096       C  0.52247524  0.19360828  0.71985310    -0.39800
H1097       H  0.56378776  0.18024597  0.64374941     0.13000
H1098       H  0.55680385  0.14175523  0.60821204     0.12600
H1099       H  0.49116682  0.10269357  0.66270067     0.12000
H1100       H  0.49807410  0.14117329  0.69842903     0.12300
H1101       H  0.50895993  0.07513753  0.61930471     0.15000
H1102       H  0.52959471  0.11898177  0.57348651     0.13800
H1103       H  0.55126434  0.20566129  0.68664727     0.11500
H1104       H  0.50823763  0.17705576  0.72869982     0.13500
C1105       C  0.48423254  0.83148712  0.67583586     0.19600
C1106       C  0.49744204  0.82819241  0.64868936    -0.18500
C1107       C  0.50266352  0.85219964  0.63095706    -0.10800
C1108       C  0.49396902  0.88025843  0.63952529     0.21800
C1109       C  0.48184291  0.88384486  0.66727491    -0.20100
C1110       C  0.47693140  0.85965086  0.68533785    -0.11000
C1111       C  0.49670973  0.90564900  0.61945307    -0.15100
C1112       C  0.49574662  0.90203854  0.59048966    -0.29000
C1113       C  0.47695228  0.80463168  0.69225330    -0.03300
C1114       C  0.47393787  0.80301440  0.72125904    -0.39800
H1115       H  0.50361661  0.80680319  0.64101411     0.13000
H1116       H  0.51342047  0.84852111  0.61044140     0.12600
H1117       H  0.47525246  0.90523145  0.67456025     0.12000
H1118       H  0.46645407  0.86293755  0.70607877     0.12300
H1119       H  0.49805016  0.92743795  0.62847041     0.15000
H1120       H  0.49227002  0.88039740  0.58172578     0.13800
H1121       H  0.47553115  0.78482982  0.67955142     0.11500
H1122       H  0.47793135  0.82229091  0.73413040     0.13500
C1123       C  0.31420119  0.98227252  0.32633410     0.19600
C1124       C  0.31383080  0.97518736  0.35594387    -0.18500
C1125       C  0.33842118  0.97978777  0.37328447    -0.10800
C1126       C  0.36409685  0.99147040  0.36128153     0.21800
C1127       C  0.36454474  0.99839369  0.33164569    -0.20100
C1128       C  0.33988154  0.99399166  0.31433774    -0.11000
C1129       C  0.39115707  0.99492973  0.37872669    -0.15100
C1130       C  0.39065568  0.99986602  0.40746009    -0.29000
C1131       C  0.28853354  0.97464755  0.30812984    -0.03300
C1132       C  0.28276967  0.98740643  0.28252098    -0.39800
H1133       H  0.29457363  0.96561212  0.36560194     0.13000
H1134       H  0.33751383  0.97319775  0.39581674     0.12600
H1135       H  0.38416532  0.00694944  0.32177968     0.12000
H1136       H  0.34151347  0.99874028  0.29140673     0.12300
H1137       H  0.41192586  0.99346825  0.36759681     0.15000
H1138       H  0.36992560  0.00279246  0.41831911     0.13800
H1139       H  0.27461159  0.95694669  0.31540135     0.11500
H1140       H  0.29641477  0.00502397  0.27471871     0.13500
C1141       C  0.64973051  0.00573287  0.60286667     0.19600
C1142       C  0.65305085  0.98247973  0.62247644    -0.18500
C1143       C  0.66997179  0.98573751  0.64746726    -0.10800
C1144       C  0.68381268  0.01240554  0.65340993     0.21800
C1145       C  0.68143401  0.03518471  0.63317716    -0.20100
C1146       C  0.66457621  0.03187101  0.60809825    -0.11000
C1147       C  0.70271674  0.01652138  0.67919027    -0.15100
C1148       C  0.70208243  0.99949531  0.70296464    -0.29000
C1149       C  0.62961312  0.00363745  0.57778425    -0.03300
C1150       C  0.60374239  0.99044600  0.58068152    -0.39800
H1151       H  0.64254490  0.96174767  0.61848075     0.13000
H1152       H  0.67243245  0.96720649  0.66175874     0.12600
H1153       H  0.69244291  0.05571360  0.63693169     0.12000
H1154       H  0.66244425  0.05000963  0.59319684     0.12300
H1155       H  0.71879966  0.03388525  0.67827594     0.15000
H1156       H  0.68471804  0.98380815  0.70622553     0.13800
H1157       H  0.63434973  0.01598010  0.55820393     0.11500
H1158       H  0.59782849  0.98106836  0.60153895     0.13500
C1159       C  0.36841745  0.99079640  0.62301049     0.19600
C1160       C  0.33829123  0.99546030  0.62177205    -0.18500
C1161       C  0.32081821  0.98963770  0.64594118    -0.10800
C1162       C  0.33329361  0.97876775  0.67171103     0.21800
C1163       C  0.36329711  0.97376220  0.67274035    -0.20100
C1164       C  0.38069946  0.97962874  0.64871817    -0.11000
C1165       C  0.31569701  0.97016909  0.69719024    -0.15100
C1166       C  0.28957355  0.98146651  0.70336147    -0.29000
C1167       C  0.38635675  0.99607083  0.59680757    -0.03300
C1168       C  0.41494515  0.00202541  0.59850857    -0.39800
H1169       H  0.32825863  0.00344641  0.60201453     0.13000
H1170       H  0.29757994  0.99278254  0.64399172     0.12600
H1171       H  0.37328633  0.96488150  0.69214170     0.12000
H1172       H  0.40359842  0.97446840  0.65019292     0.12300
H1173       H  0.32450338  0.95340228  0.71131642     0.15000
H1174       H  0.28013755  0.99800904  0.68942990     0.13800
H1175       H  0.37587987  0.99453145  0.57569526     0.11500
H1176       H  0.42530211  0.00467457  0.61952404     0.13500
C1177       C  0.64023098  0.00182262  0.12160270     0.19600
C1178       C  0.63663304  0.98959306  0.14944381    -0.18500
C1179       C  0.65722174  0.99474704  0.17132706    -0.10800
C1180       C  0.68178305  0.01217364  0.16570352     0.21800
C1181       C  0.68524403  0.02417125  0.13784880    -0.20100
C1182       C  0.66484918  0.01892791  0.11606840    -0.11000
C1183       C  0.70488344  0.01827018  0.18746021    -0.15100
C1184       C  0.70758749  0.00591903  0.21396224    -0.29000
C1185       C  0.61913149  0.99736734  0.09760478    -0.03300
C1186       C  0.59095470  0.99074857  0.10175321    -0.39800
H1187       H  0.61827345  0.97569020  0.15435457     0.13000
H1188       H  0.65371034  0.98503282  0.19240327     0.12600
H1189       H  0.70399528  0.03757147  0.13277296     0.12000
H1190       H  0.66821135  0.02853228  0.09483455     0.12300
H1191       H  0.72141869  0.03365278  0.18052114     0.15000
H1192       H  0.69115888  0.99123325  0.22233677     0.13800
H1193       H  0.62671658  0.00176820  0.07569493     0.11500
H1194       H  0.58253078  0.98771032  0.12352676     0.13500
C1195       C  0.67005841  0.00172183  0.30872752     0.19600
C1196       C  0.63988081  0.00470985  0.30522229    -0.18500
C1197       C  0.62100326  0.00156996  0.32892693    -0.10800
C1198       C  0.63194615  0.99552243  0.35695655     0.21800
C1199       C  0.66220254  0.99282933  0.36039787    -0.20100
C1200       C  0.68101968  0.99583665  0.33669402    -0.11000
C1201       C  0.61303235  0.99317706  0.38335780    -0.15100
C1202       C  0.58378913  0.99075262  0.38258429    -0.29000
C1203       C  0.68969135  0.00729810  0.28351673    -0.03300
C1204       C  0.71646132  0.99566497  0.28142108    -0.39800
H1205       H  0.63087737  0.00976933  0.28406317     0.13000
H1206       H  0.59804033  0.00468232  0.32506805     0.12600
H1207       H  0.67141869  0.98869269  0.38166215     0.12000
H1208       H  0.70419282  0.99450492  0.34062713     0.12300
H1209       H  0.62374321  0.99355879  0.40440134     0.15000
H1210       H  0.57257250  0.98969607  0.36191406     0.13800
H1211       H  0.68236348  0.02241783  0.26692150     0.11500
H1212       H  0.72368044  0.98043284  0.29791245     0.13500
C1213       C  0.36635419  0.86606811  0.51622440     0.19600
C1214       C  0.36794187  0.83997586  0.53198409    -0.18500
C1215       C  0.34381047  0.82142903  0.53393636    -0.10800
C1216       C  0.31739349  0.82856780  0.52004273     0.21800
C1217       C  0.31582968  0.85464512  0.50426613    -0.20100
C1218       C  0.33991931  0.87324591  0.50241117    -0.11000
C1219       C  0.29217807  0.80809814  0.51918843    -0.15100
C1220       C  0.28789413  0.78716304  0.53914428    -0.29000
C1221       C  0.39302283  0.88437808  0.51323447    -0.03300
C1222       C  0.39198590  0.91301030  0.50731683    -0.39800
H1223       H  0.38808754  0.83369677  0.54249359     0.13000
H1224       H  0.34643362  0.80104913  0.54539735     0.12600
H1225       H  0.29600962  0.86041322  0.49288441     0.12000
H1226       H  0.33794369  0.89263881  0.48923524     0.12300
H1227       H  0.27769680  0.80920026  0.50054008     0.15000
H1228       H  0.30233935  0.78549222  0.55770220     0.13800
H1229       H  0.41404035  0.87412824  0.51666807     0.11500
H1230       H  0.37106899  0.92383666  0.50589969     0.13500
C1231       C  0.67446608  0.81834663  0.47470186     0.19600
C1232       C  0.64761081  0.81495137  0.48889068    -0.18500
C1233       C  0.62842650  0.83842977  0.49185366    -0.10800
C1234       C  0.63548604  0.86594857  0.48025506     0.21800
C1235       C  0.66282626  0.86952624  0.46701520    -0.20100
C1236       C  0.68208411  0.84606538  0.46420551    -0.11000
C1237       C  0.61528596  0.89146172  0.48154053    -0.15100
C1238       C  0.58642454  0.88950102  0.48681347    -0.29000
C1239       C  0.69188054  0.79189896  0.46788054    -0.03300
C1240       C  0.72043091  0.79169853  0.46073620    -0.39800
H1241       H  0.64115211  0.79383316  0.49720921     0.13000
H1242       H  0.60813474  0.83472261  0.50309254     0.12600
H1243       H  0.66901743  0.89043787  0.45803411     0.12000
H1244       H  0.70226971  0.84945445  0.45263495     0.12300
H1245       H  0.62450718  0.91276142  0.47689978     0.15000
H1246       H  0.57640318  0.86839502  0.49022108     0.13800
H1247       H  0.67999863  0.77142694  0.46770277     0.11500
H1248       H  0.73343855  0.81120249  0.46339580     0.13500
C1249       C  0.67643052  0.17247636  0.46199649     0.19600
C1250       C  0.68053692  0.14616056  0.47712294    -0.18500
C1251       C  0.65778124  0.12583873  0.47938994    -0.10800
C1252       C  0.63043514  0.13136209  0.46655222     0.21800
C1253       C  0.62663718  0.15739305  0.45111428    -0.20100
C1254       C  0.64931029  0.17755689  0.44875603    -0.11000
C1255       C  0.60491673  0.11148453  0.46989704    -0.15100
C1256       C  0.60708518  0.08315664  0.47703668    -0.29000
C1257       C  0.69837580  0.19645857  0.46118055    -0.03300
C1258       C  0.72474701  0.19666950  0.47430523    -0.39800
H1259       H  0.70088773  0.14138796  0.48787921     0.13000
H1260       H  0.66151324  0.10638544  0.49207283     0.12600
H1261       H  0.60588199  0.16234734  0.44108002     0.12000
H1262       H  0.64532204  0.19765571  0.43708533     0.12300
H1263       H  0.58346879  0.12042629  0.46551852     0.15000
H1264       H  0.62834718  0.07329557  0.47966407     0.13800
H1265       H  0.69143789  0.21617673  0.45015727     0.11500
H1266       H  0.73358129  0.17720526  0.48423086     0.13500
C1267       C  0.32143160  0.16883724  0.52296709     0.19600
C1268       C  0.35128816  0.17326096  0.52813811    -0.18500
C1269       C  0.37152450  0.15116541  0.52325498    -0.10800
C1270       C  0.36245725  0.12385821  0.51294630     0.21800
C1271       C  0.33250576  0.11904102  0.50853133    -0.20100
C1272       C  0.31216592  0.14129785  0.51328752    -0.11000
C1273       C  0.38342262  0.09967740  0.50767717    -0.15100
C1274       C  0.41214708  0.10357162  0.50238686    -0.29000
C1275       C  0.30138381  0.19373536  0.52844906    -0.03300
C1276       C  0.27300779  0.19547187  0.52071914    -0.39800
H1277       H  0.35911874  0.19407127  0.53599126     0.13000
H1278       H  0.39415459  0.15552495  0.52805637     0.12600
H1279       H  0.32482842  0.09801484  0.50112686     0.12000
H1280       H  0.28939249  0.13667946  0.50957304     0.12300
H1281       H  0.37459029  0.07771807  0.50765460     0.15000
H1282       H  0.42119633  0.12535314  0.50107144     0.13800
H1283       H  0.31137614  0.21230459  0.53894593     0.11500
H1284       H  0.26240161  0.17731735  0.51006802     0.13500
C1285       C  0.84635513  0.98172158  0.61004386     0.19600
C1286       C  0.82175821  0.99980662  0.61045445    -0.18500
C1287       C  0.80426455  0.00143429  0.63534070    -0.10800
C1288       C  0.81109217  0.98476928  0.66011842     0.21800
C1289       C  0.83464549  0.96552869  0.65898489    -0.20100
C1290       C  0.85181243  0.96366161  0.63414462    -0.11000
C1291       C  0.79601574  0.98860414  0.68830449    -0.15100
C1292       C  0.76786648  0.99607367  0.69083912    -0.29000
C1293       C  0.86718340  0.98331026  0.58535165    -0.03300
C1294       C  0.89595051  0.98016520  0.58987994    -0.39800
H1295       H  0.81693398  0.01373910  0.59208321     0.13000
H1296       H  0.78640713  0.01674764  0.63563434     0.12600
H1297       H  0.84013353  0.95224174  0.67765197     0.12000
H1298       H  0.86981411  0.94851893  0.63416813     0.12300
H1299       H  0.80868729  0.98416786  0.70769500     0.15000
H1300       H  0.75494176  0.99777429  0.67127196     0.13800
H1301       H  0.85919528  0.98936432  0.56397570     0.11500
H1302       H  0.90380534  0.97621937  0.61177846     0.13500
C1303       C  0.17670283  0.96630991  0.67319375     0.19600
C1304       C  0.14671605  0.96798202  0.67834204    -0.18500
C1305       C  0.12694579  0.97001422  0.65545586    -0.10800
C1306       C  0.13663928  0.97043771  0.62645782     0.21800
C1307       C  0.16670059  0.96820783  0.62123689    -0.20100
C1308       C  0.18656945  0.96611192  0.64427921    -0.11000
C1309       C  0.11636674  0.97313882  0.60117829    -0.15100
C1310       C  0.08728727  0.97617424  0.60364298    -0.29000
C1311       C  0.19627988  0.96392821  0.69884004    -0.03300
C1312       C  0.22542751  0.96693009  0.69828855    -0.39800
H1313       H  0.13842260  0.96781925  0.70034089     0.13000
H1314       H  0.10423629  0.97122311  0.66109602     0.12600
H1315       H  0.17488709  0.96810482  0.59920572     0.12000
H1316       H  0.20941215  0.96405722  0.63918933     0.12300
H1317       H  0.12584241  0.97266800  0.57959205     0.15000
H1318       H  0.07698303  0.97676299  0.62469449     0.13800
H1319       H  0.18571540  0.96013203  0.71952988     0.11500
H1320       H  0.23636122  0.97215460  0.67815243     0.13500
C1321       C  0.16851681  0.99212650  0.31765507     0.19600
C1322       C  0.17445373  0.98106343  0.34552486    -0.18500
C1323       C  0.15352398  0.98286368  0.36754829    -0.10800
C1324       C  0.12623674  0.99583339  0.36212280     0.21800
C1325       C  0.12094979  0.00778047  0.33458378    -0.20100
C1326       C  0.14174731  0.00588586  0.31265183    -0.11000
C1327       C  0.10192637  0.99589631  0.38350458    -0.15100
C1328       C  0.10453761  0.98844584  0.41164238    -0.29000
C1329       C  0.18788151  0.98704053  0.29238553    -0.03300
C1330       C  0.21626491  0.97980863  0.29390824    -0.39800
H1331       H  0.19457692  0.96976936  0.35007597     0.13000
H1332       H  0.15856833  0.97298981  0.38823432     0.12600
H1333       H  0.10025804  0.01795565  0.32971629     0.12000
H1334       H  0.13653038  0.01451898  0.29137519     0.12300
H1335       H  0.08064974  0.00247545  0.37554033     0.15000
H1336       H  0.12558930  0.98297177  0.42073054     0.13800
H1337       H  0.17787423  0.98918784  0.27111082     0.11500
H1338       H  0.22753097  0.97993928  0.31457001     0.13500
C1339       C  0.82209700  0.02070104  0.32852186     0.19600
C1340       C  0.84955263  0.03414332  0.32871198    -0.18500
C1341       C  0.86881958  0.02982439  0.35168245    -0.10800
C1342       C  0.86105218  0.01185277  0.37511574     0.21800
C1343       C  0.83312858  0.99943484  0.37569610    -0.20100
C1344       C  0.81379634  0.00364869  0.35255428    -0.11000
C1345       C  0.88144248  0.00621793  0.39941863    -0.15100
C1346       C  0.91053130  0.00641391  0.39601353    -0.29000
C1347       C  0.80376353  0.02462245  0.30226226    -0.03300
C1348       C  0.77960696  0.00924352  0.29586110    -0.39800
H1349       H  0.85639370  0.04772776  0.31071533     0.13000
H1350       H  0.88968316  0.04076010  0.35104665     0.12600
H1351       H  0.82648132  0.98596232  0.39384084     0.12000
H1352       H  0.79264306  0.99341753  0.35368636     0.12300
H1353       H  0.87220125  0.00074922  0.42042972     0.15000
H1354       H  0.91993535  0.00997415  0.37470340     0.13800
H1355       H  0.81168250  0.04026971  0.28643283     0.11500
H1356       H  0.77041991  0.99409105  0.31134138     0.13500
C1357       C  0.18025176  0.81732301  0.50267090     0.19600
C1358       C  0.15510822  0.81537944  0.48534702    -0.18500
C1359       C  0.13453346  0.83781994  0.48499944    -0.10800
C1360       C  0.13866369  0.86288395  0.50201822     0.21800
C1361       C  0.16412110  0.86525204  0.51869608    -0.20100
C1362       C  0.18464202  0.84279642  0.51915283    -0.11000
C1363       C  0.11744452  0.88732820  0.50228102    -0.15100
C1364       C  0.08877067  0.88389327  0.49704244    -0.29000
C1365       C  0.20088657  0.79220687  0.50297300    -0.03300
C1366       C  0.22261236  0.78884623  0.52239400    -0.39800
H1367       H  0.15122019  0.79626885  0.47214811     0.13000
H1368       H  0.11567446  0.83559584  0.47108738     0.12600
H1369       H  0.16804618  0.88450616  0.53167929     0.12000
H1370       H  0.20384902  0.84588366  0.53231350     0.12300
H1371       H  0.12560042  0.90871394  0.50827894     0.15000
H1372       H  0.08005645  0.86236433  0.49268516     0.13800
H1373       H  0.19748632  0.77530930  0.48689549     0.11500
H1374       H  0.22734909  0.80583628  0.53793596     0.13500
C1375       C  0.81862431  0.81857183  0.45845192     0.19600
C1376       C  0.82318962  0.84491632  0.44352601    -0.18500
C1377       C  0.84768532  0.86219059  0.44926738    -0.10800
C1378       C  0.86831330  0.85349198  0.47015290     0.21800
C1379       C  0.86404861  0.82707373  0.48479097    -0.20100
C1380       C  0.83940391  0.80994578  0.47932157    -0.11000
C1381       C  0.89449475  0.87141785  0.47696391    -0.15100
C1382       C  0.89374103  0.90065846  0.47664573    -0.29000
C1383       C  0.79217877  0.80091356  0.45125844    -0.03300
C1384       C  0.78676600  0.77389451  0.46142691    -0.39800
H1385       H  0.80779049  0.85213869  0.42721274     0.13000
H1386       H  0.85064010  0.88211291  0.43703041     0.12600
H1387       H  0.87962005  0.81989736  0.50095131     0.12000
H1388       H  0.83694185  0.79017007  0.49174818     0.12300
H1389       H  0.91417886  0.86039647  0.48401069     0.15000
H1390       H  0.87338097  0.91153223  0.47158403     0.13800
H1391       H  0.77703327  0.80998743  0.43554524     0.11500
H1392       H  0.80241129  0.76317419  0.47525837     0.13500
C1393       C  0.88476786  0.14010163  0.49998990     0.19600
C1394       C  0.85979191  0.13531387  0.48284715    -0.18500
C1395       C  0.83701730  0.15556429  0.48231171    -0.10800
C1396       C  0.83864558  0.18129426  0.49885148     0.21800
C1397       C  0.86382716  0.18616579  0.51559967    -0.20100
C1398       C  0.88666849  0.16598914  0.51596619    -0.11000
C1399       C  0.81510571  0.20379653  0.49929737    -0.15100
C1400       C  0.79133190  0.20393846  0.48198910    -0.29000
C1401       C  0.90914863  0.11863869  0.50133188    -0.03300
C1402       C  0.90462405  0.08981588  0.49846318    -0.39800
H1403       H  0.85788216  0.11606373  0.46948291     0.13000
H1404       H  0.81831473  0.15066198  0.46896854     0.12600
H1405       H  0.86591631  0.20578254  0.52844968     0.12000
H1406       H  0.90570485  0.17041754  0.52914974     0.12300
H1407       H  0.81767505  0.22145296  0.51470583     0.15000
H1408       H  0.78710887  0.18597437  0.46741034     0.13800
H1409       H  0.93094600  0.12659144  0.50596722     0.11500
H1410       H  0.88251639  0.08190037  0.49565374     0.13500
C1411       C  0.17521483  0.16240819  0.51999832     0.19600
C1412       C  0.17482524  0.13516049  0.53375965    -0.18500
C1413       C  0.15077784  0.11670348  0.53106204    -0.10800
C1414       C  0.12644308  0.12515615  0.51451398     0.21800
C1415       C  0.12640224  0.15270036  0.50141021    -0.20100
C1416       C  0.15051638  0.17115378  0.50401117    -0.11000
C1417       C  0.10059011  0.10598473  0.51130618    -0.15100
C1418       C  0.10281435  0.07682886  0.51140246    -0.29000
C1419       C  0.20077716  0.18178397  0.52470570    -0.03300
C1420       C  0.20662088  0.20530081  0.50836757    -0.39800
H1421       H  0.19316642  0.12817053  0.54681051     0.13000
H1422       H  0.15110817  0.09608815  0.54244819     0.12600
H1423       H  0.10768510  0.15992054  0.48903315     0.12000
H1424       H  0.14922503  0.19241816  0.49405137     0.12300
H1425       H  0.07950072  0.11607313  0.50783198     0.15000
H1426       H  0.12413624  0.06679815  0.51296184     0.13800
H1427       H  0.21472101  0.17733011  0.54326123     0.11500
H1428       H  0.19301626  0.21070680  0.48990910     0.13500
C1429       C  0.99418717  0.67216146  0.16424265     0.19600
C1430       C  0.00457156  0.67746725  0.13608482    -0.18500
C1431       C  0.00251813  0.65623836  0.11464178    -0.10800
C1432       C  0.99043194  0.62892711  0.12086585     0.21800
C1433       C  0.98006005  0.62336917  0.14909348    -0.20100
C1434       C  0.98193891  0.64480328  0.17063023    -0.11000
C1435       C  0.98874917  0.60728928  0.09706214    -0.15100
C1436       C  0.98697747  0.57833806  0.10126035    -0.29000
C1437       C  0.99583537  0.69649109  0.18532612    -0.03300
C1438       C  0.98219459  0.69783730  0.21116512    -0.39800
H1439       H  0.01397029  0.69837626  0.13045340     0.13000
H1440       H  0.01055445  0.66116679  0.09308595     0.12600
H1441       H  0.96998596  0.60279038  0.15453900     0.12000
H1442       H  0.97371442  0.63979964  0.19202214     0.12300
H1443       H  0.99076628  0.61560526  0.07504809     0.15000
H1444       H  0.98641041  0.56938723  0.12304799     0.13800
H1445       H  0.00792451  0.71553066  0.17814860     0.11500
H1446       H  0.97071671  0.67926545  0.22011009     0.13500
C1447       C  0.98474596  0.85354631  0.36939341     0.19600
C1448       C  0.99337618  0.82428454  0.36954752    -0.18500
C1449       C  0.98883348  0.80670004  0.34514748    -0.10800
C1450       C  0.97497738  0.81803767  0.32027583     0.21800
C1451       C  0.96558390  0.84708105  0.32061180    -0.20100
C1452       C  0.97031512  0.86462551  0.34484074    -0.11000
C1453       C  0.97147280  0.80143999  0.29281675    -0.15100
C1454       C  0.97657192  0.77276434  0.28964363    -0.29000
C1455       C  0.99023425  0.87194982  0.39528259    -0.03300
C1456       C  0.99519420  0.90074891  0.39313231    -0.39800
H1457       H  0.00429063  0.81521544  0.38834649     0.13000
H1458       H  0.99683797  0.78462497  0.34581763     0.12600
H1459       H  0.95474905  0.85639533  0.30187644     0.12000
H1460       H  0.96241220  0.88679160  0.34434923     0.12300
H1461       H  0.96475054  0.81394251  0.27397592     0.15000
H1462       H  0.98169134  0.75937304  0.30830898     0.13800
H1463       H  0.99045303  0.86150586  0.41645756     0.11500
H1464       H  0.99655291  0.91084739  0.37184262     0.13500
C1465       C  0.01000660  0.36397612  0.85936626     0.19600
C1466       C  0.98662771  0.34867857  0.84704261    -0.18500
C1467       C  0.99074369  0.33170741  0.82219306    -0.10800
C1468       C  0.01854376  0.32922433  0.80975850     0.21800
C1469       C  0.04176221  0.34498850  0.82175724    -0.20100
C1470       C  0.03751260  0.36246212  0.84614161    -0.11000
C1471       C  0.02488237  0.30652291  0.78799632    -0.15100
C1472       C  0.00598665  0.29790155  0.76744175    -0.29000
C1473       C  0.00566556  0.38072190  0.88647638    -0.03300
C1474       C  0.01845604  0.40667285  0.89025890    -0.39800
H1475       H  0.96527100  0.34956291  0.85689835     0.13000
H1476       H  0.97260402  0.31919420  0.81381113     0.12600
H1477       H  0.06344603  0.34299653  0.81280361     0.12000
H1478       H  0.05603296  0.37374161  0.85540308     0.12300
H1479       H  0.04537083  0.29494167  0.79032973     0.15000
H1480       H  0.98635703  0.31026109  0.76302846     0.13800
H1481       H  0.99039426  0.37261353  0.90257341     0.11500
H1482       H  0.03115747  0.41602448  0.87267024     0.13500
C1483       C  0.99603385  0.16875395  0.66990330     0.19600
C1484       C  0.98374586  0.14102701  0.67375562    -0.18500
C1485       C  0.98371048  0.12069539  0.65129283    -0.10800
C1486       C  0.99645708  0.12748057  0.62438818     0.21800
C1487       C  0.00797974  0.15554767  0.62019025    -0.20100
C1488       C  0.00790760  0.17600034  0.64271367    -0.11000
C1489       C  0.99785352  0.10614396  0.60015787    -0.15100
C1490       C  0.99495152  0.07711598  0.60364122    -0.29000
C1491       C  0.99790125  0.18819539  0.69557219    -0.03300
C1492       C  0.00278710  0.21713562  0.69475120    -0.39800
H1493       H  0.97430993  0.13492380  0.69442722     0.13000
H1494       H  0.97357341  0.09982434  0.65525072     0.12600
H1495       H  0.01769177  0.16145833  0.59959455     0.12000
H1496       H  0.01798579  0.19696158  0.63898121     0.12300
H1497       H  0.00233177  0.11472204  0.57862625     0.15000
H1498       H  0.99181226  0.06781318  0.62504794     0.13800
H1499       H  0.99478725  0.17780800  0.71652106     0.11500
H1500       H  0.00387726  0.22852741  0.67416102     0.13500
C1501       C  0.96292906  0.66054845  0.82195440     0.19600
C1502       C  0.95350594  0.66035547  0.85092545    -0.18500
C1503       C  0.96226869  0.63852054  0.87003301    -0.10800
C1504       C  0.98083875  0.61622667  0.86064676     0.21800
C1505       C  0.98966974  0.61577367  0.83151528    -0.20100
C1506       C  0.98103681  0.63783297  0.81232167    -0.11000
C1507       C  0.98979301  0.59239159  0.88044706    -0.15100
C1508       C  0.99235115  0.59606621  0.90933040    -0.29000
C1509       C  0.95421832  0.68575055  0.80359522    -0.03300
C1510       C  0.96084292  0.68955386  0.77533625    -0.39800
H1511       H  0.93936478  0.67735628  0.85896158     0.13000
H1512       H  0.95401865  0.63895040  0.89200457     0.12600
H1513       H  0.00361910  0.59851524  0.82370667     0.12000
H1514       H  0.98893313  0.63699557  0.79028497     0.12300
H1515       H  0.99371715  0.57111828  0.87098081     0.15000
H1516       H  0.98959832  0.61751773  0.91876308     0.13800
H1517       H  0.94255208  0.70280197  0.81479676     0.11500
H1518       H  0.97227698  0.67276091  0.76359720     0.13500
C1519       C  0.97728703  0.86012868  0.63494819     0.19600
C1520       C  0.99566666  0.85184637  0.65788514    -0.18500
C1521       C  0.98762059  0.82914868  0.67661494    -0.10800
C1522       C  0.96065714  0.81508518  0.67313307     0.21800
C1523       C  0.94206866  0.82378023  0.65065030    -0.20100
C1524       C  0.95042419  0.84582091  0.63148351    -0.11000
C1525       C  0.95009147  0.79369460  0.69461211    -0.15100
C1526       C  0.96605901  0.77102068  0.70380266    -0.29000
C1527       C  0.98568444  0.88448716  0.61548455    -0.03300
C1528       C  0.97970642  0.88386506  0.58691266    -0.39800
H1529       H  0.01625317  0.86288263  0.66121991     0.13000
H1530       H  0.00191617  0.82328458  0.69439536     0.12600
H1531       H  0.92094551  0.81358903  0.64805162     0.12000
H1532       H  0.93545718  0.85228147  0.61449177     0.12300
H1533       H  0.92811947  0.79654019  0.70278239     0.15000
H1534       H  0.98703294  0.76655625  0.69396338     0.13800
H1535       H  0.99750490  0.90281911  0.62464212     0.11500
H1536       H  0.97008942  0.86440119  0.57752882     0.13500
C1537       C  0.17292762  0.68165558  0.49278286     0.19600
C1538       C  0.17475217  0.65586004  0.47656479    -0.18500
C1539       C  0.15081852  0.63730693  0.47387710    -0.10800
C1540       C  0.12436789  0.64407534  0.48747911     0.21800
C1541       C  0.12186466  0.67071235  0.50215037    -0.20100
C1542       C  0.14595445  0.68929338  0.50501768    -0.11000
C1543       C  0.09941790  0.62342918  0.48724562    -0.15100
C1544       C  0.10321234  0.59435580  0.48729886    -0.29000
C1545       C  0.20039108  0.69800216  0.49827482    -0.03300
C1546       C  0.20288622  0.72360904  0.51236626    -0.39800
H1547       H  0.19510283  0.64953925  0.46658448     0.13000
H1548       H  0.15321439  0.61750976  0.46142443     0.12600
H1549       H  0.10155293  0.67657932  0.51246443     0.12000
H1550       H  0.14348918  0.70890670  0.51766242     0.12300
H1551       H  0.07760416  0.63228858  0.48912320     0.15000
H1552       H  0.12508018  0.58544970  0.48756433     0.13800
H1553       H  0.22028224  0.68749438  0.49109187     0.11500
H1554       H  0.18385417  0.73587434  0.51872786     0.13500
C1555       C  0.87783957  0.35860601  0.50022138     0.19600
C1556       C  0.88144746  0.33075301  0.48816492    -0.18500
C1557       C  0.85870095  0.31030235  0.48859449    -0.10800
C1558       C  0.83188074  0.31724120  0.50152482     0.21800
C1559       C  0.82861041  0.34487939  0.51414491    -0.20100
C1560       C  0.85119020  0.36529830  0.51352065    -0.11000
C1561       C  0.80614601  0.29740054  0.50160729    -0.15100
C1562       C  0.80412358  0.27120191  0.48845434    -0.29000
C1563       C  0.90245898  0.37983980  0.49933565    -0.03300
C1564       C  0.89866279  0.40896925  0.49951030    -0.39800
H1565       H  0.90184961  0.32492976  0.47800992     0.13000
H1566       H  0.86231146  0.28933314  0.47868313     0.12600
H1567       H  0.80829660  0.35088141  0.52439648     0.12000
H1568       H  0.84776810  0.38612332  0.52386255     0.12300
H1569       H  0.78687315  0.30569189  0.51239409     0.15000
H1570       H  0.82284884  0.26121468  0.47834436     0.13800
H1571       H  0.92432942  0.37117222  0.49724522     0.11500
H1572       H  0.87680528  0.41786197  0.49960544     0.13500
C1573       C  0.16402627  0.31474238  0.50541466     0.19600
C1574       C  0.16618848  0.34209001  0.49202031    -0.18500
C1575       C  0.14257600  0.36106808  0.49150784    -0.10800
C1576       C  0.11612031  0.35334840  0.50478863     0.21800
C1577       C  0.11332312  0.32535941  0.51682562    -0.20100
C1578       C  0.13710694  0.30621078  0.51732223    -0.11000
C1579       C  0.09139109  0.37423402  0.50611730    -0.15100
C1580       C  0.09587801  0.40319417  0.50721625    -0.29000
C1581       C  0.19118843  0.29752608  0.50870295    -0.03300
C1582       C  0.19271767  0.26917455  0.51597472    -0.39800
H1583       H  0.18651628  0.34911368  0.48237132     0.13000
H1584       H  0.14523871  0.38186242  0.48076702     0.12600
H1585       H  0.09303193  0.31870640  0.52677512     0.12000
H1586       H  0.13459998  0.28539440  0.52802506     0.12300
H1587       H  0.06933957  0.36568701  0.50660925     0.15000
H1588       H  0.11799120  0.41149540  0.50836740     0.13800
H1589       H  0.21142341  0.30922852  0.50500575     0.11500
H1590       H  0.17315814  0.25603649  0.51765894     0.13500
C1591       C  0.82559786  0.67753689  0.46208035     0.19600
C1592       C  0.84704479  0.67652859  0.48381875    -0.18500
C1593       C  0.86538738  0.65232608  0.48659638    -0.10800
C1594       C  0.86235166  0.62827221  0.46793975     0.21800
C1595       C  0.84054259  0.62896430  0.44661563    -0.20100
C1596       C  0.82252689  0.65336699  0.44350100    -0.11000
C1597       C  0.88131809  0.60209585  0.47063960    -0.15100
C1598       C  0.90985567  0.60436055  0.47681174    -0.29000
C1599       C  0.80503971  0.70267757  0.46121822    -0.03300
C1600       C  0.79025954  0.71074901  0.43725963    -0.39800
H1601       H  0.84950571  0.69449269  0.49882428     0.13000
H1602       H  0.88150817  0.65218135  0.50376113     0.12600
H1603       H  0.83752713  0.61059021  0.43221639     0.12000
H1604       H  0.80561239  0.65271236  0.42716626     0.12300
H1605       H  0.87208777  0.58088883  0.46566783     0.15000
H1606       H  0.91926813  0.62590348  0.47955915     0.13800
H1607       H  0.80061732  0.71365138  0.48157272     0.11500
H1608       H  0.79386765  0.69931381  0.41701440     0.13500
C1609       C  0.12791363  0.48199926  0.35689756     0.19600
C1610       C  0.12806256  0.49646062  0.33001182    -0.18500
C1611       C  0.15158774  0.49348491  0.31090484    -0.10800
C1612       C  0.17529594  0.47550926  0.31822864     0.21800
C1613       C  0.17476898  0.46074723  0.34496801    -0.20100
C1614       C  0.15141745  0.46383792  0.36402510    -0.11000
C1615       C  0.20143394  0.47166523  0.29951575    -0.15100
C1616       C  0.20550752  0.48327620  0.27287627    -0.29000
C1617       C  0.10277695  0.48571379  0.37680330    -0.03300
C1618       C  0.10531096  0.48376309  0.40588000    -0.39800
H1619       H  0.11009232  0.51044643  0.32396068     0.13000
H1620       H  0.15101408  0.50543279  0.29070372     0.12600
H1621       H  0.19258854  0.44665369  0.35122515     0.12000
H1622       H  0.15169509  0.45161267  0.38411768     0.12300
H1623       H  0.21858746  0.45822785  0.30858156     0.15000
H1624       H  0.18854555  0.49589795  0.26252079     0.13800
H1625       H  0.08191986  0.49155683  0.36731631     0.11500
H1626       H  0.12650345  0.48010906  0.41566015     0.13500
C1627       C  0.85967261  0.48532785  0.37061631     0.19600
C1628       C  0.86633045  0.48474370  0.34079019    -0.18500
C1629       C  0.84410812  0.48435618  0.32001137    -0.10800
C1630       C  0.81472413  0.48482910  0.32855489     0.21800
C1631       C  0.80818553  0.48369690  0.35826893    -0.20100
C1632       C  0.83035474  0.48402240  0.37900784    -0.11000
C1633       C  0.79023804  0.48850646  0.30773929    -0.15100
C1634       C  0.79331504  0.49600066  0.27961896    -0.29000
C1635       C  0.88208439  0.48844389  0.39380052    -0.03300
C1636       C  0.91106204  0.48901236  0.38937201    -0.39800
H1637       H  0.88848508  0.48531895  0.33309399     0.13000
H1638       H  0.85029718  0.48427095  0.29742153     0.12600
H1639       H  0.78578293  0.48367400  0.36555710     0.12000
H1640       H  0.82449008  0.48406398  0.40177128     0.12300
H1641       H  0.76839516  0.48691800  0.31659920     0.15000
H1642       H  0.81454984  0.49726253  0.26961848     0.13800
H1643       H  0.87410915  0.49070300  0.41587088     0.11500
H1644       H  0.92006366  0.48629253  0.36785646     0.13500
C1645       C  0.18197949  0.51712069  0.66539882     0.19600
C1646       C  0.15384754  0.50632903  0.67103626    -0.18500
C1647       C  0.13277526  0.50551961  0.64887978    -0.10800
C1648       C  0.13945737  0.51541535  0.62064744     0.21800
C1649       C  0.16741296  0.52638006  0.61529997    -0.20100
C1650       C  0.18828868  0.52733502  0.63733500    -0.11000
C1651       C  0.11873442  0.51332787  0.59574795    -0.15100
C1652       C  0.08962174  0.51211852  0.59860335    -0.29000
C1653       C  0.20645025  0.51557170  0.68665574    -0.03300
C1654       C  0.20458264  0.50827715  0.71505091    -0.39800
H1655       H  0.14826342  0.49760023  0.69210992     0.13000
H1656       H  0.11172039  0.49616809  0.65372765     0.12600
H1657       H  0.17327546  0.53398957  0.59381774     0.12000
H1658       H  0.20980163  0.53550419  0.63216552     0.12300
H1659       H  0.12791832  0.51373822  0.57403223     0.15000
H1660       H  0.07994560  0.51327985  0.62003269     0.13800
H1661       H  0.22792912  0.51975510  0.67775596     0.11500
H1662       H  0.18363047  0.50591268  0.72554721     0.13500
C1663       C  0.87698217  0.51296236  0.63174698     0.19600
C1664       C  0.87930386  0.49690855  0.65757395    -0.18500
C1665       C  0.85654152  0.49660213  0.67766674    -0.10800
C1666       C  0.83109518  0.51282217  0.67243418     0.21800
C1667       C  0.82937848  0.52980103  0.64711989    -0.20100
C1668       C  0.85203730  0.52993460  0.62698245    -0.11000
C1669       C  0.80483300  0.51073666  0.69107823    -0.15100
C1670       C  0.80400590  0.49820684  0.71748958    -0.29000
C1671       C  0.90106351  0.51172798  0.61043901    -0.03300
C1672       C  0.89711377  0.51523202  0.58167118    -0.39800
H1673       H  0.89845173  0.48384663  0.66180686     0.13000
H1674       H  0.85875048  0.48287222  0.69659876     0.12600
H1675       H  0.81013447  0.54262407  0.64260118     0.12000
H1676       H  0.84993711  0.54335347  0.60777416     0.12300
H1677       H  0.78476210  0.51942540  0.68210265     0.15000
H1678       H  0.82386992  0.49139027  0.72805001     0.13800
H1679       H  0.92252463  0.50606623  0.61860621     0.11500
H1680       H  0.87544790  0.51874708  0.57293349     0.13500
C1681       C  0.00717928  0.63096034  0.35562798     0.19600
C1682       C  0.99738755  0.65972364  0.35858615    -0.18500
C1683       C  0.99362746  0.67761772  0.33428161    -0.10800
C1684       C  0.99969076  0.66720351  0.30623126     0.21800
C1685       C  0.01062376  0.63888144  0.30326514    -0.20100
C1686       C  0.01425999  0.62087082  0.32761587    -0.11000
C1687       C  0.99653769  0.68606157  0.28007698    -0.15100
C1688       C  0.97712307  0.70789155  0.27858557    -0.29000
C1689       C  0.00930293  0.61245567  0.38229129    -0.03300
C1690       C  0.01034260  0.58313347  0.38193244    -0.39800
H1691       H  0.99229795  0.66835082  0.37983748     0.13000
H1692       H  0.98646666  0.69976539  0.33767056     0.12600
H1693       H  0.01617634  0.63059161  0.28199402     0.12000
H1694       H  0.02285703  0.59927405  0.32426493     0.12300
H1695       H  0.01127558  0.68253376  0.26204350     0.15000
H1696       H  0.96229132  0.71142287  0.29652330     0.13800
H1697       H  0.00796953  0.62339341  0.40313629     0.11500
H1698       H  0.01062068  0.57164418  0.36141585     0.13500
C1699       C  0.99597665  0.36996784  0.62751488     0.19600
C1700       C  0.98664261  0.34099055  0.62487092    -0.18500
C1701       C  0.98947546  0.32141729  0.64801540    -0.10800
C1702       C  0.00197463  0.33036264  0.67449561     0.21800
C1703       C  0.01143245  0.35936436  0.67706488    -0.20100
C1704       C  0.00849239  0.37896327  0.65392884    -0.11000
C1705       C  0.00725803  0.30999858  0.69925352    -0.15100
C1706       C  0.99562616  0.28310197  0.70160090    -0.29000
C1707       C  0.99405205  0.38946893  0.60169691    -0.03300
C1708       C  0.99368701  0.41876972  0.60323576    -0.39800
H1709       H  0.97733671  0.33334986  0.60464492     0.13000
H1710       H  0.98255327  0.29922582  0.64452627     0.12600
H1711       H  0.02154272  0.36682635  0.69697551     0.12000
H1712       H  0.01687179  0.40080948  0.65659950     0.12300
H1713       H  0.02230602  0.31726834  0.71591765     0.15000
H1714       H  0.98105147  0.27498631  0.68499413     0.13800
H1715       H  0.99271593  0.37914042  0.58053472     0.11500
H1716       H  0.99361521  0.42944314  0.62421754     0.13500
C1717       C  0.97991385  0.68047440  0.66439079     0.19600
C1718       C  0.97235355  0.68364002  0.63498601    -0.18500
C1719       C  0.97794442  0.66144609  0.61499483    -0.10800
C1720       C  0.99127212  0.63540811  0.62401893     0.21800
C1721       C  0.99943538  0.63248541  0.65325158    -0.20100
C1722       C  0.99396409  0.65471328  0.67322465    -0.11000
C1723       C  0.99492281  0.61000748  0.60432159    -0.15100
C1724       C  0.99618714  0.61198175  0.57515320    -0.29000
C1725       C  0.97019605  0.70324842  0.68524632    -0.03300
C1726       C  0.97873234  0.70509210  0.71319257    -0.39800
H1727       H  0.96127139  0.70307763  0.62757127     0.13000
H1728       H  0.97064997  0.66435168  0.59285450     0.12600
H1729       H  0.00954211  0.61258682  0.66083430     0.12000
H1730       H  0.99974714  0.65089136  0.69563543     0.12300
H1731       H  0.99685752  0.58871273  0.61444397     0.15000
H1732       H  0.99578861  0.63314505  0.56467442     0.13800
H1733       H  0.95376222  0.71839988  0.67758704     0.11500
H1734       H  0.99469734  0.69011186  0.72184263     0.13500
C1735       C  0.99632244  0.35989643  0.13226993     0.19600
C1736       C  0.99088781  0.36463880  0.16188516    -0.18500
C1737       C  0.98952335  0.34133718  0.18148522    -0.10800
C1738       C  0.99361360  0.31258466  0.17181999     0.21800
C1739       C  0.99891911  0.30788205  0.14220319    -0.20100
C1740       C  0.00017326  0.33109609  0.12264778    -0.11000
C1741       C  0.99165801  0.28662516  0.19116743    -0.15100
C1742       C  0.98916962  0.28730293  0.22033492    -0.29000
C1743       C  0.99651145  0.38539379  0.11217510    -0.03300
C1744       C  0.00535487  0.38429836  0.08431961    -0.39800
H1745       H  0.98747458  0.38651290  0.16990552     0.13000
H1746       H  0.98486495  0.34613862  0.20392770     0.12600
H1747       H  0.00183346  0.28599719  0.13400100     0.12000
H1748       H  0.00356350  0.32599458  0.10005372     0.12300
H1749       H  0.99269559  0.26565454  0.18047509     0.15000
H1750       H  0.98927577  0.30785155  0.23176231     0.13800
H1751       H  0.98860605  0.40595502  0.12067231     0.11500
H1752       H  0.01379096  0.36433637  0.07519779     0.13500
C1753       C  0.00820020  0.14009008  0.38629096     0.19600
C1754       C  0.99066667  0.16511424  0.38599981    -0.18500
C1755       C  0.98922100  0.18290717  0.36121022    -0.10800
C1756       C  0.00556997  0.17602755  0.33634462     0.21800
C1757       C  0.02415659  0.15188316  0.33727802    -0.20100
C1758       C  0.02573657  0.13433325  0.36196432    -0.11000
C1759       C  0.00209370  0.19141323  0.30814266    -0.15100
C1760       C  0.99127591  0.21843352  0.30465168    -0.29000
C1761       C  0.00698565  0.11956080  0.41143172    -0.03300
C1762       C  0.01093605  0.09077093  0.40772736    -0.39800
H1763       H  0.97712885  0.17020501  0.40451137     0.04600
H1764       H  0.97437605  0.20113904  0.36119507     0.12600
H1765       H  0.03717441  0.14620412  0.31854998     0.12000
H1766       H  0.04048514  0.11601757  0.36170409     0.12300
H1767       H  0.00916569  0.17961552  0.28900705     0.15000
H1768       H  0.98645347  0.23166113  0.32343976     0.13800
H1769       H  0.00066453  0.12779698  0.43257917     0.11500
H1770       H  0.01495706  0.08250980  0.38605067     0.13500
C1771       C  0.99442230  0.36423100  0.36481043     0.19600
C1772       C  0.00401324  0.36472913  0.33594077    -0.18500
C1773       C  0.99967491  0.34074773  0.31777097    -0.10800
C1774       C  0.98542312  0.31562160  0.32807462     0.21800
C1775       C  0.97523826  0.31533406  0.35678068    -0.20100
C1776       C  0.97977365  0.33927288  0.37503681    -0.11000
C1777       C  0.97983656  0.28988129  0.30925684    -0.15100
C1778       C  0.99594954  0.28340401  0.28580456    -0.29000
C1779       C  0.99850818  0.39073301  0.38297114    -0.03300
C1780       C  0.99993628  0.39000745  0.41213213    -0.39800
H1781       H  0.01484591  0.38384691  0.32735293     0.13000
H1782       H  0.00690220  0.34238502  0.29551546     0.12600
H1783       H  0.96372620  0.29649637  0.36511969     0.12000
H1784       H  0.97110494  0.33839278  0.39682964     0.12300
H1785       H  0.96187470  0.27558374  0.31497482     0.15000
H1786       H  0.01378797  0.29743904  0.27932578     0.13800
H1787       H  0.00062927  0.41150749  0.37185671     0.11500
H1788       H  0.99907294  0.36923413  0.42336609     0.13500
loop_ 
_geom_bond_atom_site_label_1 
_geom_bond_atom_site_label_2 
_geom_bond_distance 
_geom_bond_site_symmetry_2 
_ccdc_geom_bond_type 
N1            C5   1.357       .  A
N1            C2   1.358       .  A
N1         C1778   1.441       .  S
C2            C3   1.386       .  A
C2         C1760   1.489       .  S
C3            C4   1.374       .  A
C3            H6   1.082       .  S
C4            C5   1.387       .  A
C4            H7   1.081       .  S
C5         C1742   1.490       .  S
O8           C19   1.295       .  A
O8          Eu44   2.481       .  S
O9           C20   1.292       .  A
O9          Eu43   2.469       .  S
O10          C21   1.294       .  A
O10         Eu16   2.478   1_455  S
O11          C22   1.293       .  A
O11         Eu16   2.471       .  S
O12          C22   1.293       .  A
O12         Eu46   2.472       .  S
O13          C21   1.289       .  A
O13         Eu45   2.446       .  S
O14          C20   1.292       .  A
O14         Eu16   2.461       .  S
O15          C19   1.289   1_655  A
O15         Eu16   2.451       .  S
Eu16         O26   2.361       .  S
Eu16         O18   2.352   1_655  S
Eu16         O17   2.358       .  S
Eu16         O24   2.358   1_655  S
O17         Eu46   2.361       .  S
O17         Eu43   2.352       .  S
O18         Eu44   2.352       .  S
O18         Eu45   2.357       .  S
C19        C1780   1.482   1_455  S
C20        C1708   1.483       .  S
C21        C1580   1.477       .  S
C22        C1564   1.484       .  S
H23          O24   0.965       .  S
O24         Eu45   2.352       .  S
O24         Eu43   2.354   1_455  S
H25          O26   0.965       .  S
O26         Eu44   2.354   1_655  S
O26         Eu46   2.360       .  S
O27          C50   1.293       .  A
O27         Eu43   2.465       .  S
O28          C51   1.291       .  A
O28         Eu44   2.463       .  S
O29          C52   1.296       .  A
O29         Eu45   2.483       .  S
O30          C53   1.291       .  A
O30         Eu46   2.461       .  S
O31          C54   1.292       .  A
O31         Eu46   2.459       .  S
O32          C55   1.291       .  A
O32         Eu45   2.462       .  S
O33          C56   1.292       .  A
O33         Eu47   2.464       .  S
O34          C57   1.290       .  A
O34         Eu47   2.453   1_655  S
O35          C56   1.290       .  A
O35         Eu45   2.457       .  S
O36          C57   1.297       .  A
O36         Eu46   2.492       .  S
O37          C52   1.289       .  A
O37         Eu43   2.453   1_455  S
O38          C55   1.292       .  A
O38         Eu44   2.460       .  S
O39          C54   1.290       .  A
O39         Eu44   2.460   1_655  S
O40          C53   1.290       .  A
O40         Eu43   2.450       .  S
O41          C50   1.292   1_455  A
O41         Eu47   2.469       .  S
O42          C51   1.295       .  A
O42         Eu47   2.479       .  S
Eu43         O61   2.355       .  S
Eu43         O49   2.356   1_655  S
Eu44         O48   2.362   1_455  S
Eu44         O59   2.360       .  S
Eu45         O59   2.356       .  S
Eu45         O49   2.348       .  S
Eu46         O48   2.359       .  S
Eu46         O61   2.350       .  S
Eu47         O48   2.361   1_455  S
Eu47         O59   2.353       .  S
Eu47         O61   2.358   1_455  S
Eu47         O49   2.357       .  S
C50        C1724   1.483       .  S
C51        C1690   1.485       .  S
C52        C1652   1.485       .  S
C53        C1672   1.476       .  S
C54        C1636   1.479       .  S
C55        C1618   1.477       .  S
C56        C1544   1.477       .  S
C57        C1598   1.484       .  S
H58          O59   0.966       .  S
H60          O61   0.965       .  S
N62          C66   1.357       .  A
N62          C63   1.358       .  A
N62        C1726   1.444       .  S
C63          C64   1.389       .  A
C63        C1510   1.492       .  S
C64          C65   1.373       .  A
C64          H67   1.080       .  S
C65          C66   1.382       .  A
C65          H68   1.082       .  S
C66        C1526   1.482       .  S
N69          C73   1.359       .  A
N69          C70   1.359       .  A
N69        C1706   1.446   1_455  S
C70          C71   1.387       .  A
C70        C1492   1.489       .  S
C71          C72   1.371       .  A
C71          H74   1.082       .  S
C72          C73   1.382       .  A
C72          H75   1.082       .  S
C73        C1472   1.478       .  S
N76          C80   1.357       .  A
N76          C77   1.358       .  A
N76        C1688   1.442       .  S
C77          C78   1.386       .  A
C77        C1438   1.484       .  S
C78          C79   1.371       .  A
C78          H81   1.082       .  S
C79          C80   1.385       .  A
C79          H82   1.081       .  S
C80        C1454   1.487       .  S
O83          C94   1.288       .  A
O83        Eu119   2.446   1_545  S
O84          C95   1.292       .  A
O84        Eu118   2.464   1_545  S
O85          C96   1.297       .  A
O85         Eu91   2.493   1_655  S
O86          C97   1.295       .  A
O86         Eu91   2.474       .  S
O87          C97   1.289       .  A
O87        Eu121   2.449   1_545  S
O88          C96   1.289       .  A
O88        Eu120   2.449   1_545  S
O89          C95   1.292       .  A
O89         Eu91   2.459   1_655  S
O90          C94   1.295       .  A
O90         Eu91   2.483       .  S
Eu91        O101   2.364       .  S
Eu91         O93   2.348   1_455  S
Eu91         O92   2.370       .  S
Eu91         O99   2.366   1_455  S
O92        Eu121   2.356   1_545  S
O92        Eu118   2.351   1_445  S
O93        Eu119   2.354   1_645  S
O93        Eu120   2.354   1_545  S
C94        C1762   1.478       .  S
C95        C1490   1.478       .  S
C96        C1402   1.484       .  S
C97        C1418   1.475       .  S
H98          O99   0.965       .  S
O99        Eu120   2.350   1_545  S
O99        Eu118   2.359   1_545  S
H100        O101   0.965       .  S
O101       Eu119   2.342   1_545  S
O101       Eu121   2.360   1_545  S
O102        C125   1.293       .  A
O102       Eu118   2.465       .  S
O103        C126   1.290   1_455  A
O103       Eu119   2.453       .  S
O104        C127   1.293       .  A
O104       Eu120   2.476       .  S
O105        C128   1.291       .  A
O105       Eu121   2.460       .  S
O106        C129   1.288       .  A
O106       Eu121   2.448       .  S
O107        C130   1.291   1_565  A
O107       Eu120   2.451       .  S
O108        C131   1.296       .  A
O108       Eu122   2.485       .  S
O109        C132   1.292       .  A
O109       Eu122   2.469   1_455  S
O110        C131   1.289       .  A
O110       Eu120   2.448       .  S
O111        C132   1.293       .  A
O111       Eu121   2.463       .  S
O112        C127   1.288       .  A
O112       Eu118   2.443       .  S
O113        C130   1.290   1_565  A
O113       Eu119   2.455   1_655  S
O114        C129   1.294       .  A
O114       Eu119   2.472       .  S
O115        C128   1.290       .  A
O115       Eu118   2.454   1_455  S
O116        C125   1.291       .  A
O116       Eu122   2.460       .  S
O117        C126   1.293       .  A
O117       Eu122   2.466       .  S
Eu118       O136   2.352   1_655  S
Eu118       O124   2.352       .  S
Eu119       O123   2.349       .  S
Eu119       O134   2.350   1_455  S
Eu120       O134   2.352       .  S
Eu120       O124   2.346       .  S
Eu121       O123   2.353       .  S
Eu121       O136   2.352       .  S
Eu122       O123   2.358   1_655  S
Eu122       O134   2.350       .  S
Eu122       O136   2.366   1_655  S
Eu122       O124   2.353       .  S
C125       C1528   1.476       .  S
C126       C1456   1.476       .  S
C127       C1294   1.476       .  S
C128       C1310   1.477       .  S
C129       C1328   1.480       .  S
C130       C1346   1.473       .  S
C131       C1382   1.480       .  S
C132       C1364   1.482       .  S
H133        O134   0.964       .  S
H135        O136   0.965       .  S
N137        C141   1.361       .  A
N137        C138   1.354       .  A
N137       C1420   1.437       .  S
C138        C139   1.382       .  A
C138       C1582   1.488       .  S
C139        C140   1.374       .  A
C139        H142   1.082       .  S
C140        C141   1.391       .  A
C140        H143   1.080       .  S
C141       C1276   1.497       .  S
N144        C148   1.362       .  A
N144        C145   1.365       .  A
N144       C1400   1.448       .  S
C145        C146   1.385       .  A
C145       C1562   1.491       .  S
C146        C147   1.368       .  A
C146        H149   1.082       .  S
C147        C148   1.385       .  A
C147        H150   1.082       .  S
C148       C1258   1.493       .  S
N151        C155   1.361       .  A
N151        C152   1.363       .  A
N151       C1384   1.443       .  S
C152        C153   1.387       .  A
C152       C1240   1.494       .  S
C153        C154   1.374       .  A
C153        H156   1.082       .  S
C154        C155   1.378       .  A
C154        H157   1.082       .  S
C155       C1600   1.485       .  S
N158        C162   1.359       .  A
N158        C159   1.363       .  A
N158       C1366   1.446       .  S
C159        C160   1.387       .  A
C159       C1546   1.487       .  S
C160        C161   1.371       .  A
C160        H163   1.082       .  S
C161        C162   1.377       .  A
C161        H164   1.082       .  S
C162       C1220   1.479       .  S
N165        C169   1.362       .  A
N165        C166   1.358       .  A
N165       C1204   1.445   1_545  S
C166        C167   1.383       .  A
C166       C1348   1.485       .  S
C167        C168   1.367       .  A
C167        H170   1.082       .  S
C168        C169   1.389       .  A
C168        H171   1.081       .  S
C169       C1184   1.488       .  S
O172        C183   1.296       .  A
O172       Eu208   2.492       .  S
O173        C184   1.296       .  A
O173       Eu207   2.488       .  S
O174        C185   1.288       .  A
O174       Eu180   2.445       .  S
O175        C186   1.291       .  A
O175       Eu180   2.457       .  S
O176        C186   1.287       .  A
O176       Eu210   2.439   1_545  S
O177        C185   1.294   1_565  A
O177       Eu209   2.476       .  S
O178        C184   1.287       .  A
O178       Eu180   2.438   1_565  S
O179        C183   1.289       .  A
O179       Eu180   2.446       .  S
Eu180       O190   2.351       .  S
Eu180       O182   2.354       .  S
Eu180       O181   2.342   1_545  S
Eu180       O188   2.355   1_545  S
O181       Eu210   2.339       .  S
O181       Eu207   2.345       .  S
O182       Eu208   2.359       .  S
O182       Eu209   2.359   1_545  S
C183       C1274   1.486       .  S
C184       C1222   1.478       .  S
C185       C1130   1.477   1_545  S
C186       C1168   1.469       .  S
H187        O188   0.966       .  S
O188       Eu209   2.344       .  S
O188       Eu207   2.349       .  S
H189        O190   0.965       .  S
O190       Eu208   2.362       .  S
O190       Eu210   2.353   1_545  S
O191        C214   1.294       .  A
O191       Eu207   2.476       .  S
O192        C215   1.296       .  A
O192       Eu208   2.480       .  S
O193        C216   1.290       .  A
O193       Eu209   2.454       .  S
O194        C217   1.295       .  A
O194       Eu210   2.488       .  S
O195        C218   1.295       .  A
O195       Eu210   2.477   1_545  S
O196        C219   1.286       .  A
O196       Eu209   2.436   1_545  S
O197        C220   1.297       .  A
O197       Eu211   2.492       .  S
O198        C221   1.296       .  A
O198       Eu211   2.490       .  S
O199        C220   1.290       .  A
O199       Eu209   2.457       .  S
O200        C221   1.284       .  A
O200       Eu210   2.422       .  S
O201        C216   1.288       .  A
O201       Eu207   2.441       .  S
O202        C219   1.295       .  A
O202       Eu208   2.475       .  S
O203        C218   1.291       .  A
O203       Eu208   2.462       .  S
O204        C217   1.286       .  A
O204       Eu207   2.431       .  S
O205        C214   1.294       .  A
O205       Eu211   2.472       .  S
O206        C215   1.290       .  A
O206       Eu211   2.454   1_545  S
Eu207       O225   2.356       .  S
Eu207       O213   2.353       .  S
Eu208       O212   2.361       .  S
Eu208       O223   2.353       .  S
Eu209       O223   2.357   1_565  S
Eu209       O213   2.357       .  S
Eu210       O212   2.357   1_565  S
Eu210       O225   2.358       .  S
Eu211       O212   2.358   1_565  S
Eu211       O223   2.359   1_565  S
Eu211       O225   2.361       .  S
Eu211       O213   2.361       .  S
C214       C1238   1.488       .  S
C215       C1256   1.482       .  S
C216       C1076   1.468       .  S
C217       C1112   1.475       .  S
C218       C1094   1.484       .  S
C219       C1060   1.472       .  S
C220       C1202   1.486       .  S
C221       C1150   1.468       .  S
H222        O223   0.966       .  S
H224        O225   0.966       .  S
N226        C230   1.355       .  A
N226        C227   1.358       .  A
N226       C1166   1.439       .  S
C227        C228   1.386       .  A
C227       C1040   1.489       .  S
C228        C229   1.375       .  A
C228        H231   1.082       .  S
C229        C230   1.386       .  A
C229        H232   1.081       .  S
C230       C1312   1.490       .  S
N233        C237   1.357       .  A
N233        C234   1.360       .  A
N233       C1148   1.439   1_545  S
C234        C235   1.385       .  A
C234       C1292   1.494   1_545  S
C235        C236   1.374       .  A
C235        H238   1.081       .  S
C236        C237   1.386       .  A
C236        H239   1.082       .  S
C237       C1022   1.491       .  S
N240        C244   1.357       .  A
N240        C241   1.356       .  A
N240       C1132   1.439       .  S
C241        C242   1.387       .  A
C241       C1006   1.493       .  S
C242        C243   1.375       .  A
C242        H245   1.081       .  S
C243        C244   1.386       .  A
C243        H246   1.082       .  S
C244       C1330   1.488       .  S
O247        C258   1.293       .  A
O247       Eu283   2.464       .  S
O248        C259   1.293       .  A
O248       Eu282   2.474   1_554  S
O249        C260   1.289       .  A
O249       Eu255   2.452   1_545  S
O250        C261   1.294       .  A
O250       Eu255   2.476       .  S
O251        C261   1.288       .  A
O251       Eu285   2.448   1_554  S
O252        C260   1.294       .  A
O252       Eu284   2.469       .  S
O253        C259   1.291       .  A
O253       Eu255   2.455       .  S
O254        C258   1.288       .  A
O254       Eu255   2.445       .  S
Eu255       O265   2.355       .  S
Eu255       O257   2.355   1_565  S
Eu255       O256   2.338       .  S
Eu255       O263   2.360   1_565  S
O256       Eu285   2.349   1_554  S
O256       Eu282   2.347   1_554  S
O257       Eu283   2.344   1_545  S
O257       Eu284   2.347       .  S
C258       C1186   1.475       .  S
C259       C1004   1.480       .  S
C260        C986   1.478       .  S
C261        C968   1.480       .  S
H262        O263   0.967       .  S
O263       Eu284   2.361       .  S
O263       Eu282   2.353   1_544  S
H264        O265   0.968       .  S
O265       Eu283   2.352       .  S
O265       Eu285   2.343   1_554  S
O266        C289   1.292       .  A
O266       Eu282   2.461       .  S
O267        C290   1.292       .  A
O267       Eu283   2.465   1_546  S
O268        C291   1.289       .  A
O268       Eu284   2.446       .  S
O269        C292   1.288       .  A
O269       Eu285   2.446       .  S
O270        C293   1.292       .  A
O270       Eu285   2.467       .  S
O271        C294   1.292       .  A
O271       Eu284   2.469       .  S
O272        C295   1.296       .  A
O272       Eu286   2.485   1_545  S
O273        C296   1.295       .  A
O273       Eu286   2.482       .  S
O274        C295   1.291       .  A
O274       Eu284   2.460   1_556  S
O275        C296   1.286       .  A
O275       Eu285   2.431       .  S
O276        C291   1.294   1_556  A
O276       Eu282   2.474   1_545  S
O277        C294   1.286       .  A
O277       Eu283   2.435   1_545  S
O278        C293   1.286       .  A
O278       Eu283   2.434   1_556  S
O279        C292   1.295       .  A
O279       Eu282   2.473       .  S
O280        C289   1.293       .  A
O280       Eu286   2.470       .  S
O281        C290   1.292       .  A
O281       Eu286   2.457   1_545  S
Eu282       O300   2.360       .  S
Eu282       O288   2.355   1_565  S
Eu283       O287   2.349   1_554  S
Eu283       O298   2.350   1_564  S
Eu284       O298   2.350   1_554  S
Eu284       O288   2.359   1_554  S
Eu285       O287   2.347       .  S
Eu285       O300   2.362       .  S
Eu286       O287   2.361       .  S
Eu286       O298   2.362   1_565  S
Eu286       O300   2.362       .  S
Eu286       O288   2.358   1_565  S
C289       C1042   1.478       .  S
C290       C1024   1.479       .  S
C291        C914   1.478       .  S
C292        C878   1.478       .  S
C293        C896   1.471       .  S
C294        C860   1.470       .  S
C295        C932   1.485       .  S
C296        C950   1.473       .  S
H297        O298   0.966       .  S
H299        O300   0.967       .  S
N301        C305   1.355       .  A
N301        C302   1.359       .  A
N301        C988   1.443       .  S
C302        C303   1.387       .  A
C302       C1058   1.484       .  S
C303        C304   1.370       .  A
C303        H306   1.082       .  S
C304        C305   1.383       .  A
C304        H307   1.082       .  S
C305        C842   1.482       .  S
N308        C312   1.354       .  A
N308        C309   1.356       .  A
N308        C970   1.439       .  S
C309        C310   1.387       .  A
C309        C826   1.488       .  S
C310        C311   1.374       .  A
C310        H313   1.082       .  S
C311        C312   1.386       .  A
C311        H314   1.081       .  S
C312       C1078   1.486       .  S
N315        C319   1.360       .  A
N315        C316   1.357       .  A
N315        C952   1.441       .  S
C316        C317   1.386       .  A
C316        C806   1.490       .  S
C317        C318   1.373       .  A
C317        H320   1.081       .  S
C318        C319   1.386       .  A
C318        H321   1.081       .  S
C319       C1114   1.494       .  S
N322        C326   1.364       .  A
N322        C323   1.363       .  A
N322        C934   1.443       .  S
C323        C324   1.386       .  A
C323       C1096   1.499       .  S
C324        C325   1.372       .  A
C324        H327   1.081       .  S
C325        C326   1.387       .  A
C325        H328   1.081       .  S
C326        C788   1.501       .  S
O329        C340   1.291       .  A
O329       Eu365   2.461   1_554  S
O330        C341   1.291       .  A
O330       Eu364   2.447       .  S
O331        C342   1.288       .  A
O331       Eu337   2.444   1_455  S
O332        C343   1.293       .  A
O332       Eu337   2.471       .  S
O333        C343   1.291       .  A
O333       Eu367   2.462   1_554  S
O334        C342   1.296       .  A
O334       Eu366   2.488       .  S
O335        C341   1.291       .  A
O335       Eu337   2.467       .  S
O336        C340   1.292   1_655  A
O336       Eu337   2.461       .  S
Eu337       O347   2.358       .  S
Eu337       O339   2.356   1_655  S
Eu337       O338   2.345       .  S
Eu337       O345   2.357   1_655  S
O338       Eu367   2.348   1_554  S
O338       Eu364   2.349       .  S
O339       Eu365   2.352   1_554  S
O339       Eu366   2.349       .  S
C340       C1744   1.477       .  S
C341       C1436   1.477       .  S
C342        C752   1.481       .  S
C343        C770   1.483       .  S
H344        O345   0.965       .  S
O345       Eu366   2.353       .  S
O345       Eu364   2.358   1_455  S
H346        O347   0.966       .  S
O347       Eu365   2.363   1_654  S
O347       Eu367   2.350   1_554  S
O348        C371   1.290       .  A
O348       Eu364   2.457   1_556  S
O349        C372   1.296       .  A
O349       Eu365   2.487       .  S
O350        C373   1.291       .  A
O350       Eu366   2.454       .  S
O351        C374   1.291       .  A
O351       Eu367   2.463       .  S
O352        C375   1.293       .  A
O352       Eu367   2.469       .  S
O353        C376   1.292   1_554  A
O353       Eu366   2.467       .  S
O354        C377   1.296       .  A
O354       Eu368   2.489       .  S
O355        C378   1.295       .  A
O355       Eu368   2.484   1_655  S
O356        C377   1.292       .  A
O356       Eu366   2.466   1_556  S
O357        C378   1.288       .  A
O357       Eu367   2.442       .  S
O358        C373   1.289       .  A
O358       Eu364   2.448   1_455  S
O359        C376   1.287       .  A
O359       Eu365   2.436       .  S
O360        C375   1.288       .  A
O360       Eu365   2.445   1_655  S
O361        C374   1.293   1_554  A
O361       Eu364   2.463       .  S
O362        C371   1.290   1_455  A
O362       Eu368   2.449       .  S
O363        C372   1.285       .  A
O363       Eu368   2.429       .  S
Eu364       O382   2.349   1_554  S
Eu364       O370   2.350   1_654  S
Eu365       O369   2.340   1_455  S
Eu365       O380   2.353       .  S
Eu366       O380   2.359   1_554  S
Eu366       O370   2.363   1_554  S
Eu367       O369   2.349       .  S
Eu367       O382   2.362       .  S
Eu368       O369   2.356   1_455  S
Eu368       O380   2.360       .  S
Eu368       O382   2.356   1_455  S
Eu368       O370   2.349       .  S
C371       C1508   1.474       .  S
C372       C1474   1.470       .  S
C373        C680   1.471       .  S
C374        C644   1.482       .  S
C375        C662   1.476       .  S
C376        C698   1.466       .  S
C377        C734   1.489       .  S
C378        C716   1.472       .  S
H379        O380   0.966       .  S
H381        O382   0.965       .  S
N383        C387   1.356       .  A
N383        C384   1.359       .  A
N383        C772   1.447       .  S
C384        C385   1.386       .  A
C384        C626   1.483       .  S
C385        C386   1.372       .  A
C385        H388   1.082       .  S
C386        C387   1.384       .  A
C386        H389   1.082       .  S
C387       C1634   1.481       .  S
N390        C394   1.361       .  A
N390        C391   1.358       .  A
N390        C754   1.443       .  S
C391        C392   1.384       .  A
C391        C608   1.492       .  S
C392        C393   1.373       .  A
C392        H395   1.082       .  S
C393        C394   1.388       .  A
C393        H396   1.081       .  S
C394       C1616   1.492       .  S
N397        C401   1.364       .  A
N397        C398   1.368       .  A
N397        C736   1.450       .  S
C398        C399   1.387       .  A
C398        C590   1.495       .  S
C399        C400   1.366       .  A
C399        H402   1.082       .  S
C400        C401   1.383       .  A
C400        H403   1.082       .  S
C401       C1654   1.494       .  S
N404        C408   1.356       .  A
N404        C405   1.357       .  A
N404        C718   1.442       .  S
C405        C406   1.384       .  A
C405       C1670   1.484       .  S
C406        C407   1.373       .  A
C406        H409   1.082       .  S
C407        C408   1.386       .  A
C407        H410   1.082       .  S
C408        C574   1.484       .  S
N411        C415   1.357       .  A
N411        C412   1.358       .  A
N411        C556   1.447       .  S
C412        C413   1.381   1_554  A
C412        C700   1.477       .  S
C413        C414   1.371       .  A
C413        H416   1.082       .  S
C414        C415   1.389   1_556  A
C414        H417   1.081       .  S
C415        C916   1.488       .  S
O418        C429   1.291       .  A
O418       Eu454   2.463       .  S
O419        C430   1.296       .  A
O419       Eu453   2.488       .  S
O420        C431   1.285       .  A
O420       Eu426   2.424   1_554  S
O421        C432   1.287       .  A
O421       Eu426   2.441       .  S
O422        C432   1.293       .  A
O422       Eu456   2.473       .  S
O423        C431   1.297       .  A
O423       Eu455   2.492   1_554  S
O424        C430   1.290       .  A
O424       Eu426   2.462       .  S
O425        C429   1.289       .  A
O425       Eu426   2.443   1_554  S
Eu426       O436   2.351   1_556  S
Eu426       O428   2.347   1_556  S
Eu426       O427   2.337       .  S
Eu426       O434   2.353       .  S
O427       Eu456   2.346       .  S
O427       Eu453   2.355       .  S
O428       Eu454   2.352       .  S
O428       Eu455   2.346   1_554  S
C429        C844   1.473       .  S
C430        C790   1.490       .  S
C431        C554   1.475       .  S
C432        C500   1.475       .  S
H433        O434   0.968       .  S
O434       Eu455   2.365       .  S
O434       Eu453   2.357       .  S
H435        O436   0.967       .  S
O436       Eu454   2.360       .  S
O436       Eu456   2.345   1_554  S
O437        C460   1.292       .  A
O437       Eu453   2.466       .  S
O438        C461   1.295       .  A
O438       Eu454   2.476       .  S
O439        C462   1.291       .  A
O439       Eu455   2.459       .  S
O440        C463   1.290       .  A
O440       Eu456   2.445       .  S
O441        C464   1.289       .  A
O441       Eu456   2.452   1_554  S
O442        C465   1.293       .  A
O442       Eu455   2.467   1_554  S
O443        C466   1.292       .  A
O443       Eu457   2.466       .  S
O444        C467   1.295       .  A
O444       Eu457   2.478       .  S
O445        C466   1.296       .  A
O445       Eu455   2.486       .  S
O446        C467   1.286       .  A
O446       Eu456   2.434       .  S
O447        C462   1.295       .  A
O447       Eu453   2.475       .  S
O448        C465   1.292       .  A
O448       Eu454   2.465       .  S
O449        C464   1.295       .  A
O449       Eu454   2.476       .  S
O450        C463   1.293       .  A
O450       Eu453   2.472       .  S
O451        C460   1.291       .  A
O451       Eu457   2.453       .  S
O452        C461   1.289       .  A
O452       Eu457   2.455   1_554  S
Eu453       O471   2.366       .  S
Eu453       O459   2.359       .  S
Eu454       O458   2.348       .  S
Eu454       O469   2.356       .  S
Eu455       O469   2.363   1_556  S
Eu455       O459   2.356       .  S
Eu456       O458   2.357   1_556  S
Eu456       O471   2.366       .  S
Eu457       O458   2.352   1_556  S
Eu457       O469   2.360   1_556  S
Eu457       O471   2.363       .  S
Eu457       O459   2.355       .  S
C460        C808   1.477       .  S
C461        C824   1.483       .  S
C462        C592   1.483       .  S
C463        C572   1.477       .  S
C464        C628   1.479       .  S
C465        C610   1.482       .  S
C466        C520   1.489       .  S
C467        C536   1.473       .  S
H468        O469   0.968       .  S
H470        O471   0.967       .  S
N472        C476   1.356       .  A
N472        C473   1.354       .  A
N472        C538   1.438   1_554  S
C473        C474   1.385       .  A
C473        C898   1.485   1_554  S
C474        C475   1.374       .  A
C474        H477   1.081       .  S
C475        C476   1.387       .  A
C475        H478   1.081       .  S
C476        C646   1.487       .  S
N479        C483   1.360       .  A
N479        C480   1.364       .  A
N479        C518   1.450       .  S
C480        C481   1.388       .  A
C480        C880   1.487       .  S
C481        C482   1.366       .  A
C481        H484   1.082       .  S
C482        C483   1.382       .  A
C482        H485   1.082       .  S
C483        C682   1.483       .  S
N486        C490   1.357   1_556  A
N486        C487   1.355       .  A
N486        C502   1.443       .  S
C487        C488   1.385       .  A
C487        C664   1.485       .  S
C488        C489   1.375   1_556  A
C488        H491   1.081   1_556  S
C489        C490   1.387       .  A
C489        H492   1.081       .  S
C490        C862   1.487       .  S
C493        C494   1.403   1_556  A
C493        C498   1.410       .  A
C493        C501   1.489   1_556  S
C494        C495   1.397       .  A
C494        H503   1.084       .  S
C495        C496   1.408   1_554  A
C495        H504   1.082       .  S
C496        C497   1.402       .  A
C496        C499   1.488       .  S
C497        C498   1.400       .  A
C497        H505   1.083       .  S
C498        H506   1.080       .  S
C499        H507   1.087       .  S
C499        C500   1.344       .  D
C500        H508   1.086   1_556  S
C501        H509   1.086       .  S
C501        C502   1.345   1_554  D
C502        H510   1.083       .  S
C511        C512   1.405       .  A
C511        C516   1.411       .  A
C511        C519   1.500       .  S
C512        C513   1.402       .  A
C512        H521   1.083   1_554  S
C513        C514   1.409       .  A
C513        H522   1.081       .  S
C514        C515   1.405       .  A
C514        C517   1.499       .  S
C515        C516   1.405       .  A
C515        H523   1.083       .  S
C516        H524   1.081       .  S
C517        H525   1.084       .  S
C517        C518   1.349       .  D
C518        H526   1.084   1_554  S
C519        H527   1.087       .  S
C519        C520   1.350   1_554  D
C520        H528   1.084       .  S
C529        C530   1.400   1_556  A
C529        C534   1.408       .  A
C529        C537   1.482   1_556  S
C530        C531   1.397       .  A
C530        H539   1.084       .  S
C531        C532   1.410   1_554  A
C531        H540   1.081       .  S
C532        C533   1.401       .  A
C532        C535   1.486       .  S
C533        C534   1.397       .  A
C533        H541   1.083       .  S
C534        H542   1.082       .  S
C535        H543   1.087       .  S
C535        C536   1.342       .  D
C536        H544   1.085       .  S
C537        H545   1.086       .  S
C537        C538   1.342   1_554  D
C538        H546   1.085       .  S
C547        C548   1.406       .  A
C547        C552   1.408   1_556  A
C547        C555   1.489       .  S
C548        C549   1.397       .  A
C548        H557   1.083       .  S
C549        C550   1.400   1_556  A
C549        H558   1.083       .  S
C550        C551   1.409       .  A
C550        C553   1.486       .  S
C551        C552   1.401       .  A
C551        H559   1.082       .  S
C552        H560   1.080       .  S
C553        H561   1.087   1_554  S
C553        C554   1.341       .  D
C554        H562   1.087       .  S
C555        H563   1.085       .  S
C555        C556   1.350   1_556  D
C556        H564   1.083       .  S
C565        C566   1.406       .  A
C565        C570   1.407       .  A
C565        C573   1.485       .  S
C566        C567   1.397       .  A
C566        H575   1.084       .  S
C567        C568   1.404       .  A
C567        H576   1.083       .  S
C568        C569   1.402       .  A
C568        C571   1.481       .  S
C569        C570   1.398       .  A
C569        H577   1.083       .  S
C570        H578   1.081       .  S
C571        H579   1.087       .  S
C571        C572   1.347       .  D
C572        H580   1.086       .  S
C573        H581   1.086       .  S
C573        C574   1.349       .  D
C574        H582   1.083       .  S
C583        C584   1.401       .  A
C583        C588   1.413       .  A
C583        C591   1.493       .  S
C584        C585   1.396       .  A
C584        H593   1.084       .  S
C585        C586   1.406       .  A
C585        H594   1.084       .  S
C586        C587   1.406       .  A
C586        C589   1.491       .  S
C587        C588   1.407       .  A
C587        H595   1.081       .  S
C588        H596   1.081       .  S
C589        H597   1.086       .  S
C589        C590   1.355       .  D
C590        H598   1.084       .  S
C591        H599   1.087       .  S
C591        C592   1.346       .  D
C592        H600   1.084       .  S
C601        C602   1.406       .  A
C601        C606   1.407       .  A
C601        C609   1.493       .  S
C602        C603   1.403       .  A
C602        H611   1.083       .  S
C603        C604   1.408       .  A
C603        H612   1.080       .  S
C604        C605   1.405       .  A
C604        C607   1.492       .  S
C605        C606   1.398       .  A
C605        H613   1.084       .  S
C606        H614   1.081       .  S
C607        H615   1.086       .  S
C607        C608   1.350       .  D
C608        H616   1.083       .  S
C609        H617   1.087       .  S
C609        C610   1.350       .  D
C610        H618   1.084       .  S
C619        C620   1.401       .  A
C619        C624   1.411       .  A
C619        C627   1.489       .  S
C620        C621   1.394       .  A
C620        H629   1.084       .  S
C621        C622   1.403       .  A
C621        H630   1.084       .  S
C622        C623   1.408       .  A
C622        C625   1.485       .  S
C623        C624   1.403       .  A
C623        H631   1.081       .  S
C624        H632   1.081       .  S
C625        H633   1.087       .  S
C625        C626   1.346       .  D
C626        H634   1.084       .  S
C627        H635   1.087       .  S
C627        C628   1.344       .  D
C628        H636   1.085       .  S
C637        C638   1.403       .  A
C637        C642   1.410   1_554  A
C637        C645   1.488       .  S
C638        C639   1.393       .  A
C638        H647   1.084       .  S
C639        C640   1.401       .  A
C639        H648   1.084       .  S
C640        C641   1.408   1_554  A
C640        C643   1.486       .  S
C641        C642   1.405       .  A
C641        H649   1.082       .  S
C642        H650   1.080       .  S
C643        H651   1.087       .  S
C643        C644   1.346   1_554  D
C644        H652   1.085       .  S
C645        H653   1.086       .  S
C645        C646   1.347       .  D
C646        H654   1.083   1_554  S
C655        C656   1.404       .  A
C655        C660   1.407       .  A
C655        C663   1.485       .  S
C656        C657   1.399       .  A
C656        H665   1.084       .  S
C657        C658   1.408       .  A
C657        H666   1.081       .  S
C658        C659   1.402       .  A
C658        C661   1.485       .  S
C659        C660   1.396       .  A
C659        H667   1.083       .  S
C660        H668   1.081       .  S
C661        H669   1.087       .  S
C661        C662   1.345       .  D
C662        H670   1.085       .  S
C663        H671   1.085       .  S
C663        C664   1.347       .  D
C664        H672   1.083       .  S
C673        C674   1.402   1_554  A
C673        C678   1.407       .  A
C673        C681   1.481       .  S
C674        C675   1.393       .  A
C674        H683   1.084       .  S
C675        C676   1.405   1_556  A
C675        H684   1.082       .  S
C676        C677   1.402       .  A
C676        C679   1.479       .  S
C677        C678   1.399       .  A
C677        H685   1.083       .  S
C678        H686   1.081       .  S
C679        H687   1.087       .  S
C679        C680   1.344       .  D
C680        H688   1.086       .  S
C681        H689   1.086   1_554  S
C681        C682   1.346       .  D
C682        H690   1.084       .  S
C691        C692   1.401       .  A
C691        C696   1.412   1_556  A
C691        C699   1.483       .  S
C692        C693   1.390       .  A
C692        H701   1.084       .  S
C693        C694   1.405       .  A
C693        H702   1.083       .  S
C694        C695   1.400   1_556  A
C694        C697   1.479       .  S
C695        C696   1.401       .  A
C695        H703   1.083       .  S
C696        H704   1.079       .  S
C697        H705   1.086   1_556  S
C697        C698   1.342       .  D
C698        H706   1.088       .  S
C699        H707   1.087       .  S
C699        C700   1.342   1_556  D
C700        H708   1.082       .  S
C709        C710   1.402       .  A
C709        C714   1.408       .  A
C709        C717   1.484       .  S
C710        C711   1.397       .  A
C710        H719   1.083       .  S
C711        C712   1.405       .  A
C711        H720   1.083       .  S
C712        C713   1.403       .  A
C712        C715   1.484       .  S
C713        C714   1.403       .  A
C713        H721   1.083       .  S
C714        H722   1.083       .  S
C715        H723   1.087       .  S
C715        C716   1.342       .  D
C716        H724   1.087       .  S
C717        H725   1.087       .  S
C717        C718   1.343       .  D
C718        H726   1.086       .  S
C727        C728   1.405       .  A
C727        C732   1.411       .  A
C727        C735   1.500       .  S
C728        C729   1.403       .  A
C728        H737   1.083       .  S
C729        C730   1.409       .  A
C729        H738   1.081       .  S
C730        C731   1.406       .  A
C730        C733   1.500       .  S
C731        C732   1.405       .  A
C731        H739   1.083       .  S
C732        H740   1.081       .  S
C733        H741   1.087       .  S
C733        C734   1.350       .  D
C734        H742   1.085       .  S
C735        H743   1.085       .  S
C735        C736   1.350       .  D
C736        H744   1.084       .  S
C745        C746   1.402       .  A
C745        C750   1.407       .  A
C745        C753   1.489       .  S
C746        C747   1.401       .  A
C746        H755   1.084       .  S
C747        C748   1.413       .  A
C747        H756   1.079       .  S
C748        C749   1.404       .  A
C748        C751   1.498       .  S
C749        C750   1.399       .  A
C749        H757   1.083       .  S
C750        H758   1.082       .  S
C751        H759   1.087       .  S
C751        C752   1.346       .  D
C752        H760   1.082       .  S
C753        H761   1.086       .  S
C753        C754   1.346       .  D
C754        H762   1.084       .  S
C763        C764   1.403       .  A
C763        C768   1.410       .  A
C763        C771   1.491       .  S
C764        C765   1.398       .  A
C764        H773   1.084       .  S
C765        C766   1.408       .  A
C765        H774   1.081       .  S
C766        C767   1.405       .  A
C766        C769   1.493       .  S
C767        C768   1.403       .  A
C767        H775   1.083       .  S
C768        H776   1.081       .  S
C769        H777   1.087       .  S
C769        C770   1.349       .  D
C770        H778   1.085       .  S
C771        H779   1.085       .  S
C771        C772   1.347       .  D
C772        H780   1.084       .  S
C781        C782   1.403       .  A
C781        C786   1.415       .  A
C781        C789   1.502       .  S
C782        C783   1.397       .  A
C782        H791   1.083       .  S
C783        C784   1.405       .  A
C783        H792   1.084       .  S
C784        C785   1.407       .  A
C784        C787   1.493       .  S
C785        C786   1.410       .  A
C785        H793   1.082       .  S
C786        H794   1.080       .  S
C787        H795   1.085       .  S
C787        C788   1.354       .  D
C788        H796   1.083       .  S
C789        H797   1.087       .  S
C789        C790   1.348       .  D
C790        H798   1.084       .  S
C799        C800   1.407       .  A
C799        C804   1.407       .  A
C799        C807   1.492       .  S
C800        C801   1.404       .  A
C800        H809   1.083       .  S
C801        C802   1.407       .  A
C801        H810   1.082       .  S
C802        C803   1.402       .  A
C802        C805   1.486       .  S
C803        C804   1.394       .  A
C803        H811   1.084       .  S
C804        H812   1.080       .  S
C805        H813   1.085       .  S
C805        C806   1.349       .  D
C806        H814   1.084       .  S
C807        H815   1.087       .  S
C807        C808   1.350       .  D
C808        H816   1.083       .  S
C817        C818   1.403       .  A
C817        C822   1.408       .  A
C817        C825   1.486       .  S
C818        C819   1.393       .  A
C818        H827   1.084       .  S
C819        C820   1.401       .  A
C819        H828   1.084       .  S
C820        C821   1.411       .  A
C820        C823   1.490       .  S
C821        C822   1.405       .  A
C821        H829   1.081       .  S
C822        H830   1.082       .  S
C823        H831   1.087       .  S
C823        C824   1.345       .  D
C824        H832   1.085       .  S
C825        H833   1.086       .  S
C825        C826   1.348       .  D
C826        H834   1.083       .  S
C835        C836   1.403       .  A
C835        C840   1.404       .  A
C835        C843   1.479       .  S
C836        C837   1.399       .  A
C836        H845   1.083       .  S
C837        C838   1.408       .  A
C837        H846   1.081       .  S
C838        C839   1.403       .  A
C838        C841   1.481       .  S
C839        C840   1.394       .  A
C839        H847   1.084       .  S
C840        H848   1.082       .  S
C841        H849   1.087       .  S
C841        C842   1.344       .  D
C842        H850   1.084       .  S
C843        H851   1.087       .  S
C843        C844   1.346       .  D
C844        H852   1.086       .  S
C853        C854   1.402       .  A
C853        C858   1.410   1_554  A
C853        C861   1.486       .  S
C854        C855   1.393       .  A
C854        H863   1.084       .  S
C855        C856   1.405       .  A
C855        H864   1.083       .  S
C856        C857   1.403   1_554  A
C856        C859   1.484       .  S
C857        C858   1.403       .  A
C857        H865   1.083       .  S
C858        H866   1.081       .  S
C859        H867   1.087       .  S
C859        C860   1.344       .  D
C860        H868   1.087       .  S
C861        H869   1.086       .  S
C861        C862   1.346       .  D
C862        H870   1.083   1_554  S
C871        C872   1.408   1_554  A
C871        C876   1.405       .  A
C871        C879   1.486       .  S
C872        C873   1.403       .  A
C872        H881   1.080       .  S
C873        C874   1.409   1_556  A
C873        H882   1.082       .  S
C874        C875   1.400       .  A
C874        C877   1.484       .  S
C875        C876   1.393       .  A
C875        H883   1.084       .  S
C876        H884   1.084       .  S
C877        H885   1.087       .  S
C877        C878   1.343   1_554  D
C878        H886   1.086       .  S
C879        H887   1.086       .  S
C879        C880   1.351       .  D
C880        H888   1.082   1_554  S
C889        C890   1.401       .  A
C889        C894   1.409   1_556  A
C889        C897   1.483       .  S
C890        C891   1.393       .  A
C890        H899   1.084       .  S
C891        C892   1.407       .  A
C891        H900   1.081       .  S
C892        C893   1.403       .  A
C892        C895   1.485       .  S
C893        C894   1.400   1_556  A
C893        H901   1.083   1_556  S
C894        H902   1.081       .  S
C895        H903   1.087       .  S
C895        C896   1.344       .  D
C896        H904   1.085       .  S
C897        H905   1.085       .  S
C897        C898   1.344       .  D
C898        H906   1.083       .  S
C907        C908   1.404       .  A
C907        C912   1.408       .  A
C907        C915   1.486       .  S
C908        C909   1.392       .  A
C908        H917   1.084       .  S
C909        C910   1.404       .  A
C909        H918   1.081       .  S
C910        C911   1.407       .  A
C910        C913   1.488       .  S
C911        C912   1.404       .  A
C911        H919   1.083   1_554  S
C912        H920   1.081       .  S
C913        H921   1.087       .  S
C913        C914   1.351       .  D
C914        H922   1.085   1_554  S
C915        H923   1.085       .  S
C915        C916   1.349       .  D
C916        H924   1.083   1_554  S
C925        C926   1.404       .  A
C925        C930   1.409       .  A
C925        C933   1.494       .  S
C926        C927   1.401       .  A
C926        H935   1.084       .  S
C927        C928   1.410       .  A
C927        H936   1.081       .  S
C928        C929   1.405       .  A
C928        C931   1.497       .  S
C929        C930   1.402       .  A
C929        H937   1.083       .  S
C930        H938   1.081       .  S
C931        H939   1.087       .  S
C931        C932   1.348       .  D
C932        H940   1.085       .  S
C933        H941   1.086       .  S
C933        C934   1.347       .  D
C934        H942   1.083       .  S
C943        C944   1.404       .  A
C943        C948   1.408       .  A
C943        C951   1.487       .  S
C944        C945   1.396       .  A
C944        H953   1.083       .  S
C945        C946   1.400       .  A
C945        H954   1.083       .  S
C946        C947   1.410       .  A
C946        C949   1.487       .  S
C947        C948   1.400       .  A
C947        H955   1.082       .  S
C948        H956   1.080       .  S
C949        H957   1.087       .  S
C949        C950   1.341       .  D
C950        H958   1.085       .  S
C951        H959   1.087       .  S
C951        C952   1.345       .  D
C952        H960   1.083       .  S
C961        C962   1.405       .  A
C961        C966   1.410       .  A
C961        C969   1.491       .  S
C962        C963   1.400       .  A
C962        H971   1.083       .  S
C963        C964   1.407       .  A
C963        H972   1.082       .  S
C964        C965   1.402       .  A
C964        C967   1.487       .  S
C965        C966   1.399       .  A
C965        H973   1.083       .  S
C966        H974   1.080       .  S
C967        H975   1.087       .  S
C967        C968   1.345       .  D
C968        H976   1.086       .  S
C969        H977   1.087       .  S
C969        C970   1.344       .  D
C970        H978   1.083       .  S
C979        C980   1.402       .  A
C979        C984   1.408       .  A
C979        C987   1.488       .  S
C980        C981   1.400       .  A
C980        H989   1.083       .  S
C981        C982   1.411       .  A
C981        H990   1.080       .  S
C982        C983   1.403       .  A
C982        C985   1.492       .  S
C983        C984   1.399       .  A
C983        H991   1.083       .  S
C984        H992   1.082       .  S
C985        H993   1.087       .  S
C985        C986   1.346       .  D
C986        H994   1.084       .  S
C987        H995   1.085       .  S
C987        C988   1.344       .  D
C988        H996   1.085       .  S
C997        C998   1.404       .  A
C997       C1002   1.411       .  A
C997       C1005   1.491       .  S
C998        C999   1.394       .  A
C998       H1007   1.083       .  S
C999       C1000   1.404       .  A
C999       H1008   1.082       .  S
C1000      C1001   1.405       .  A
C1000      C1003   1.488       .  S
C1001      C1002   1.404       .  A
C1001      H1009   1.083       .  S
C1002      H1010   1.080       .  S
C1003      H1011   1.087       .  S
C1003      C1004   1.350       .  D
C1004      H1012   1.086       .  S
C1005      H1013   1.084       .  S
C1005      C1006   1.348       .  D
C1006      H1014   1.082       .  S
C1015      C1016   1.406       .  A
C1015      C1020   1.405       .  A
C1015      C1023   1.488       .  S
C1016      C1017   1.403       .  A
C1016      H1025   1.083   1_545  S
C1017      C1018   1.408       .  A
C1017      H1026   1.081   1_545  S
C1018      C1019   1.406       .  A
C1018      C1021   1.490       .  S
C1019      C1020   1.395       .  A
C1019      H1027   1.084       .  S
C1020      H1028   1.081       .  S
C1021      H1029   1.086       .  S
C1021      C1022   1.351       .  D
C1022      H1030   1.083   1_545  S
C1023      H1031   1.087       .  S
C1023      C1024   1.349       .  D
C1024      H1032   1.085       .  S
C1033      C1034   1.407       .  A
C1033      C1038   1.405       .  A
C1033      C1041   1.490       .  S
C1034      C1035   1.407       .  A
C1034      H1043   1.083   1_565  S
C1035      C1036   1.409       .  A
C1035      H1044   1.082       .  S
C1036      C1037   1.402       .  A
C1036      C1039   1.487       .  S
C1037      C1038   1.392       .  A
C1037      H1045   1.084       .  S
C1038      H1046   1.082       .  S
C1039      H1047   1.086       .  S
C1039      C1040   1.347       .  D
C1040      H1048   1.084       .  S
C1041      H1049   1.086       .  S
C1041      C1042   1.349       .  D
C1042      H1050   1.086       .  S
C1051      C1052   1.400       .  A
C1051      C1056   1.409       .  A
C1051      C1059   1.484       .  S
C1052      C1053   1.394       .  A
C1052      H1061   1.084       .  S
C1053      C1054   1.404       .  A
C1053      H1062   1.084       .  S
C1054      C1055   1.407       .  A
C1054      C1057   1.483       .  S
C1055      C1056   1.400       .  A
C1055      H1063   1.081       .  S
C1056      H1064   1.081       .  S
C1057      H1065   1.087       .  S
C1057      C1058   1.348       .  D
C1058      H1066   1.084       .  S
C1059      H1067   1.088       .  S
C1059      C1060   1.341       .  D
C1060      H1068   1.085       .  S
C1069      C1070   1.402       .  A
C1069      C1074   1.409       .  A
C1069      C1077   1.481       .  S
C1070      C1071   1.391       .  A
C1070      H1079   1.084       .  S
C1071      C1072   1.404       .  A
C1071      H1080   1.083       .  S
C1072      C1073   1.402       .  A
C1072      C1075   1.478       .  S
C1073      C1074   1.400       .  A
C1073      H1081   1.083       .  S
C1074      H1082   1.081       .  S
C1075      H1083   1.087       .  S
C1075      C1076   1.344       .  D
C1076      H1084   1.087       .  S
C1077      H1085   1.084       .  S
C1077      C1078   1.344       .  D
C1078      H1086   1.083       .  S
C1087      C1088   1.408       .  A
C1087      C1092   1.408       .  A
C1087      C1095   1.496       .  S
C1088      C1089   1.400       .  A
C1088      H1097   1.084       .  S
C1089      C1090   1.406       .  A
C1089      H1098   1.082       .  S
C1090      C1091   1.406       .  A
C1090      C1093   1.493       .  S
C1091      C1092   1.404       .  A
C1091      H1099   1.083       .  S
C1092      H1100   1.080       .  S
C1093      H1101   1.087       .  S
C1093      C1094   1.349       .  D
C1094      H1102   1.086       .  S
C1095      H1103   1.084       .  S
C1095      C1096   1.355       .  D
C1096      H1104   1.082       .  S
C1105      C1106   1.400       .  A
C1105      C1110   1.408       .  A
C1105      C1113   1.484       .  S
C1106      C1107   1.392       .  A
C1106      H1115   1.084       .  S
C1107      C1108   1.408       .  A
C1107      H1116   1.081       .  S
C1108      C1109   1.406       .  A
C1108      C1111   1.493       .  S
C1109      C1110   1.406       .  A
C1109      H1117   1.083       .  S
C1110      H1118   1.082       .  S
C1111      H1119   1.086       .  S
C1111      C1112   1.346       .  D
C1112      H1120   1.085       .  S
C1113      H1121   1.085       .  S
C1113      C1114   1.346       .  D
C1114      H1122   1.082       .  S
C1123      C1124   1.402       .  A
C1123      C1128   1.410       .  A
C1123      C1131   1.488       .  S
C1124      C1125   1.399       .  A
C1124      H1133   1.083       .  S
C1125      C1126   1.409       .  A
C1125      H1134   1.082       .  S
C1126      C1127   1.402       .  A
C1126      C1129   1.488       .  S
C1127      C1128   1.399       .  A
C1127      H1135   1.083   1_565  S
C1128      H1136   1.081       .  S
C1129      H1137   1.087       .  S
C1129      C1130   1.344       .  D
C1130      H1138   1.086   1_565  S
C1131      H1139   1.087       .  S
C1131      C1132   1.343       .  D
C1132      H1140   1.084   1_565  S
C1141      C1142   1.406   1_545  A
C1141      C1146   1.401       .  A
C1141      C1149   1.482       .  S
C1142      C1143   1.396       .  A
C1142      H1151   1.083       .  S
C1143      C1144   1.406   1_565  A
C1143      H1152   1.081       .  S
C1144      C1145   1.405       .  A
C1144      C1147   1.482       .  S
C1145      C1146   1.398       .  A
C1145      H1153   1.083       .  S
C1146      H1154   1.083       .  S
C1147      H1155   1.087       .  S
C1147      C1148   1.345   1_545  D
C1148      H1156   1.085       .  S
C1149      H1157   1.087       .  S
C1149      C1150   1.340   1_545  D
C1150      H1158   1.087       .  S
C1159      C1160   1.403       .  A
C1159      C1164   1.408       .  A
C1159      C1167   1.483       .  S
C1160      C1161   1.399       .  A
C1160      H1169   1.083   1_565  S
C1161      C1162   1.409       .  A
C1161      H1170   1.082       .  S
C1162      C1163   1.399       .  A
C1162      C1165   1.480       .  S
C1163      C1164   1.392       .  A
C1163      H1171   1.084       .  S
C1164      H1172   1.081       .  S
C1165      H1173   1.086       .  S
C1165      C1166   1.340       .  D
C1166      H1174   1.085       .  S
C1167      H1175   1.087       .  S
C1167      C1168   1.344   1_565  D
C1168      H1176   1.085       .  S
C1177      C1178   1.409   1_545  A
C1177      C1182   1.400       .  A
C1177      C1185   1.483   1_545  S
C1178      C1179   1.402       .  A
C1178      H1187   1.081       .  S
C1179      C1180   1.407   1_565  A
C1179      H1188   1.080       .  S
C1180      C1181   1.405       .  A
C1180      C1183   1.485       .  S
C1181      C1182   1.393       .  A
C1181      H1189   1.084       .  S
C1182      H1190   1.084       .  S
C1183      H1191   1.085       .  S
C1183      C1184   1.351       .  D
C1184      H1192   1.083   1_545  S
C1185      H1193   1.087   1_565  S
C1185      C1186   1.343       .  D
C1186      H1194   1.085       .  S
C1195      C1196   1.403       .  A
C1195      C1200   1.409   1_545  A
C1195      C1203   1.494       .  S
C1196      C1197   1.403       .  A
C1196      H1205   1.083       .  S
C1197      C1198   1.412   1_545  A
C1197      H1206   1.080       .  S
C1198      C1199   1.405       .  A
C1198      C1201   1.500       .  S
C1199      C1200   1.401       .  A
C1199      H1207   1.083       .  S
C1200      H1208   1.082       .  S
C1201      H1209   1.087       .  S
C1201      C1202   1.349       .  D
C1202      H1210   1.083       .  S
C1203      H1211   1.086       .  S
C1203      C1204   1.346   1_545  D
C1204      H1212   1.084       .  S
C1213      C1214   1.402       .  A
C1213      C1218   1.410       .  A
C1213      C1221   1.491       .  S
C1214      C1215   1.400       .  A
C1214      H1223   1.083       .  S
C1215      C1216   1.410       .  A
C1215      H1224   1.081       .  S
C1216      C1217   1.402       .  A
C1216      C1219   1.491       .  S
C1217      C1218   1.400       .  A
C1217      H1225   1.083       .  S
C1218      H1226   1.081       .  S
C1219      H1227   1.087       .  S
C1219      C1220   1.344       .  D
C1220      H1228   1.084       .  S
C1221      H1229   1.087       .  S
C1221      C1222   1.344       .  D
C1222      H1230   1.085       .  S
C1231      C1232   1.406       .  A
C1231      C1236   1.405       .  A
C1231      C1239   1.491       .  S
C1232      C1233   1.402       .  A
C1232      H1241   1.084       .  S
C1233      C1234   1.409       .  A
C1233      H1242   1.081       .  S
C1234      C1235   1.407       .  A
C1234      C1237   1.498       .  S
C1235      C1236   1.403       .  A
C1235      H1243   1.083       .  S
C1236      H1244   1.082       .  S
C1237      H1245   1.087       .  S
C1237      C1238   1.352       .  D
C1238      H1246   1.084       .  S
C1239      H1247   1.087       .  S
C1239      C1240   1.354       .  D
C1240      H1248   1.083       .  S
C1249      C1250   1.407       .  A
C1249      C1254   1.406       .  A
C1249      C1257   1.493       .  S
C1250      C1251   1.404       .  A
C1250      H1259   1.080       .  S
C1251      C1252   1.411       .  A
C1251      H1260   1.081       .  S
C1252      C1253   1.401       .  A
C1252      C1255   1.493       .  S
C1253      C1254   1.397       .  A
C1253      H1261   1.084       .  S
C1254      H1262   1.084       .  S
C1255      H1263   1.087       .  S
C1255      C1256   1.346       .  D
C1256      H1264   1.085       .  S
C1257      H1265   1.086       .  S
C1257      C1258   1.353       .  D
C1258      H1266   1.083       .  S
C1267      C1268   1.407       .  A
C1267      C1272   1.407       .  A
C1267      C1275   1.493       .  S
C1268      C1269   1.397       .  A
C1268      H1277   1.084       .  S
C1269      C1270   1.405       .  A
C1269      H1278   1.081       .  S
C1270      C1271   1.408       .  A
C1270      C1273   1.493       .  S
C1271      C1272   1.405       .  A
C1271      H1279   1.083       .  S
C1272      H1280   1.081       .  S
C1273      H1281   1.087       .  S
C1273      C1274   1.354       .  D
C1274      H1282   1.085       .  S
C1275      H1283   1.082       .  S
C1275      C1276   1.354       .  D
C1276      H1284   1.083       .  S
C1285      C1286   1.405       .  A
C1285      C1290   1.407       .  A
C1285      C1293   1.490       .  S
C1286      C1287   1.404   1_565  A
C1286      H1295   1.083   1_565  S
C1287      C1288   1.409   1_545  A
C1287      H1296   1.082       .  S
C1288      C1289   1.400       .  A
C1288      C1291   1.484       .  S
C1289      C1290   1.394       .  A
C1289      H1297   1.084       .  S
C1290      H1298   1.082       .  S
C1291      H1299   1.085       .  S
C1291      C1292   1.345       .  D
C1292      H1300   1.082       .  S
C1293      H1301   1.086       .  S
C1293      C1294   1.346       .  D
C1294      H1302   1.086       .  S
C1303      C1304   1.401       .  A
C1303      C1308   1.408       .  A
C1303      C1311   1.488       .  S
C1304      C1305   1.394       .  A
C1304      H1313   1.084       .  S
C1305      C1306   1.409       .  A
C1305      H1314   1.078       .  S
C1306      C1307   1.407       .  A
C1306      C1309   1.495       .  S
C1307      C1308   1.402       .  A
C1307      H1315   1.083       .  S
C1308      H1316   1.081       .  S
C1309      H1317   1.087       .  S
C1309      C1310   1.349       .  D
C1310      H1318   1.081       .  S
C1311      H1319   1.084       .  S
C1311      C1312   1.347       .  D
C1312      H1320   1.082       .  S
C1321      C1322   1.407       .  A
C1321      C1326   1.403   1_565  A
C1321      C1329   1.486       .  S
C1322      C1323   1.402       .  A
C1322      H1331   1.081       .  S
C1323      C1324   1.411       .  A
C1323      H1332   1.080       .  S
C1324      C1325   1.403   1_565  A
C1324      C1327   1.491       .  S
C1325      C1326   1.395       .  A
C1325      H1333   1.084       .  S
C1326      H1334   1.084       .  S
C1327      H1335   1.087   1_565  S
C1327      C1328   1.346       .  D
C1328      H1336   1.083       .  S
C1329      H1337   1.086       .  S
C1329      C1330   1.349       .  D
C1330      H1338   1.083       .  S
C1339      C1340   1.404       .  A
C1339      C1344   1.408       .  A
C1339      C1347   1.484       .  S
C1340      C1341   1.393       .  A
C1340      H1349   1.084       .  S
C1341      C1342   1.404       .  A
C1341      H1350   1.082       .  S
C1342      C1343   1.404   1_545  A
C1342      C1345   1.482       .  S
C1343      C1344   1.400   1_565  A
C1343      H1351   1.083       .  S
C1344      H1352   1.080   1_545  S
C1345      H1353   1.087       .  S
C1345      C1346   1.346       .  D
C1346      H1354   1.086       .  S
C1347      H1355   1.086       .  S
C1347      C1348   1.347       .  D
C1348      H1356   1.082   1_545  S
C1357      C1358   1.406       .  A
C1357      C1362   1.410       .  A
C1357      C1365   1.495       .  S
C1358      C1359   1.401       .  A
C1358      H1367   1.083       .  S
C1359      C1360   1.407       .  A
C1359      H1368   1.082       .  S
C1360      C1361   1.403       .  A
C1360      C1363   1.489       .  S
C1361      C1362   1.400       .  A
C1361      H1369   1.084       .  S
C1362      H1370   1.079       .  S
C1363      H1371   1.087       .  S
C1363      C1364   1.348       .  D
C1364      H1372   1.085       .  S
C1365      H1373   1.085       .  S
C1365      C1366   1.348       .  D
C1366      H1374   1.082       .  S
C1375      C1376   1.407       .  A
C1375      C1380   1.411       .  A
C1375      C1383   1.497       .  S
C1376      C1377   1.401       .  A
C1376      H1385   1.084       .  S
C1377      C1378   1.408       .  A
C1377      H1386   1.083       .  S
C1378      C1379   1.401       .  A
C1378      C1381   1.490       .  S
C1379      C1380   1.400       .  A
C1379      H1387   1.083       .  S
C1380      H1388   1.079       .  S
C1381      H1389   1.087       .  S
C1381      C1382   1.344       .  D
C1382      H1390   1.086       .  S
C1383      H1391   1.087       .  S
C1383      C1384   1.349       .  D
C1384      H1392   1.079       .  S
C1393      C1394   1.409       .  A
C1393      C1398   1.403       .  A
C1393      C1401   1.495       .  S
C1394      C1395   1.402       .  A
C1394      H1403   1.082       .  S
C1395      C1396   1.410       .  A
C1395      H1404   1.079       .  S
C1396      C1397   1.407       .  A
C1396      C1399   1.498       .  S
C1397      C1398   1.402       .  A
C1397      H1405   1.083       .  S
C1398      H1406   1.083       .  S
C1399      H1407   1.085       .  S
C1399      C1400   1.351       .  D
C1400      H1408   1.082       .  S
C1401      H1409   1.086       .  S
C1401      C1402   1.347       .  D
C1402      H1410   1.086       .  S
C1411      C1412   1.402       .  A
C1411      C1416   1.411       .  A
C1411      C1419   1.488       .  S
C1412      C1413   1.397       .  A
C1412      H1421   1.083       .  S
C1413      C1414   1.407       .  A
C1413      H1422   1.082       .  S
C1414      C1415   1.401       .  A
C1414      C1417   1.485       .  S
C1415      C1416   1.399       .  A
C1415      H1423   1.083       .  S
C1416      H1424   1.080       .  S
C1417      H1425   1.087       .  S
C1417      C1418   1.344       .  D
C1418      H1426   1.086       .  S
C1419      H1427   1.087       .  S
C1419      C1420   1.343       .  D
C1420      H1428   1.083       .  S
C1429      C1430   1.404   1_655  A
C1429      C1434   1.407       .  A
C1429      C1437   1.484       .  S
C1430      C1431   1.393       .  A
C1430      H1439   1.084       .  S
C1431      C1432   1.401   1_455  A
C1431      H1440   1.084       .  S
C1432      C1433   1.409       .  A
C1432      C1435   1.484       .  S
C1433      C1434   1.402       .  A
C1433      H1441   1.081       .  S
C1434      H1442   1.081       .  S
C1435      H1443   1.087       .  S
C1435      C1436   1.346       .  D
C1436      H1444   1.085       .  S
C1437      H1445   1.087   1_655  S
C1437      C1438   1.348       .  D
C1438      H1446   1.083       .  S
C1447      C1448   1.403       .  A
C1447      C1452   1.405       .  A
C1447      C1455   1.484       .  S
C1448      C1449   1.401       .  A
C1448      H1457   1.083   1_655  S
C1449      C1450   1.409       .  A
C1449      H1458   1.080       .  S
C1450      C1451   1.404       .  A
C1450      C1453   1.487       .  S
C1451      C1452   1.395       .  A
C1451      H1459   1.084       .  S
C1452      H1460   1.082       .  S
C1453      H1461   1.085       .  S
C1453      C1454   1.347       .  D
C1454      H1462   1.082       .  S
C1455      H1463   1.087       .  S
C1455      C1456   1.346       .  D
C1456      H1464   1.086       .  S
C1465      C1466   1.402   1_455  A
C1465      C1470   1.406       .  A
C1465      C1473   1.483       .  S
C1466      C1467   1.400       .  A
C1466      H1475   1.083       .  S
C1467      C1468   1.406   1_655  A
C1467      H1476   1.083       .  S
C1468      C1469   1.402       .  A
C1468      C1471   1.478       .  S
C1469      C1470   1.397       .  A
C1469      H1477   1.083       .  S
C1470      H1478   1.083       .  S
C1471      H1479   1.088       .  S
C1471      C1472   1.343       .  D
C1472      H1480   1.086   1_455  S
C1473      H1481   1.087   1_455  S
C1473      C1474   1.340       .  D
C1474      H1482   1.087       .  S
C1483      C1484   1.403       .  A
C1483      C1488   1.407   1_655  A
C1483      C1491   1.486       .  S
C1484      C1485   1.396       .  A
C1484      H1493   1.084       .  S
C1485      C1486   1.406       .  A
C1485      H1494   1.081       .  S
C1486      C1487   1.406   1_655  A
C1486      C1489   1.489       .  S
C1487      C1488   1.401       .  A
C1487      H1495   1.083       .  S
C1488      H1496   1.081       .  S
C1489      H1497   1.087   1_655  S
C1489      C1490   1.349       .  D
C1490      H1498   1.084       .  S
C1491      H1499   1.086       .  S
C1491      C1492   1.349   1_655  D
C1492      H1500   1.084       .  S
C1501      C1502   1.404       .  A
C1501      C1506   1.409       .  A
C1501      C1509   1.488       .  S
C1502      C1503   1.393       .  A
C1502      H1511   1.084       .  S
C1503      C1504   1.404       .  A
C1503      H1512   1.082       .  S
C1504      C1505   1.403       .  A
C1504      C1507   1.483       .  S
C1505      C1506   1.401       .  A
C1505      H1513   1.083   1_655  S
C1506      H1514   1.080       .  S
C1507      H1515   1.087       .  S
C1507      C1508   1.347       .  D
C1508      H1516   1.086       .  S
C1509      H1517   1.083       .  S
C1509      C1510   1.349       .  D
C1510      H1518   1.081       .  S
C1519      C1520   1.404       .  A
C1519      C1524   1.406       .  A
C1519      C1527   1.484       .  S
C1520      C1521   1.402       .  A
C1520      H1529   1.083   1_655  S
C1521      C1522   1.405       .  A
C1521      H1530   1.083   1_655  S
C1522      C1523   1.400       .  A
C1522      C1525   1.476       .  S
C1523      C1524   1.396       .  A
C1523      H1531   1.083       .  S
C1524      H1532   1.083       .  S
C1525      H1533   1.087       .  S
C1525      C1526   1.343       .  D
C1526      H1534   1.086       .  S
C1527      H1535   1.087       .  S
C1527      C1528   1.345       .  D
C1528      H1536   1.087       .  S
C1537      C1538   1.405       .  A
C1537      C1542   1.408       .  A
C1537      C1545   1.489       .  S
C1538      C1539   1.396       .  A
C1538      H1547   1.084       .  S
C1539      C1540   1.405       .  A
C1539      H1548   1.082       .  S
C1540      C1541   1.404       .  A
C1540      C1543   1.487       .  S
C1541      C1542   1.403       .  A
C1541      H1549   1.083       .  S
C1542      H1550   1.080       .  S
C1543      H1551   1.087       .  S
C1543      C1544   1.348       .  D
C1544      H1552   1.086       .  S
C1545      H1553   1.087       .  S
C1545      C1546   1.349       .  D
C1546      H1554   1.083       .  S
C1555      C1556   1.406       .  A
C1555      C1560   1.406       .  A
C1555      C1563   1.493       .  S
C1556      C1557   1.404       .  A
C1556      H1565   1.083       .  S
C1557      C1558   1.408       .  A
C1557      H1566   1.080       .  S
C1558      C1559   1.406       .  A
C1558      C1561   1.492       .  S
C1559      C1560   1.398       .  A
C1559      H1567   1.084       .  S
C1560      H1568   1.082       .  S
C1561      H1569   1.087       .  S
C1561      C1562   1.352       .  D
C1562      H1570   1.083       .  S
C1563      H1571   1.087       .  S
C1563      C1564   1.350       .  D
C1564      H1572   1.085       .  S
C1573      C1574   1.402       .  A
C1573      C1578   1.409       .  A
C1573      C1581   1.487       .  S
C1574      C1575   1.394       .  A
C1574      H1583   1.084       .  S
C1575      C1576   1.407       .  A
C1575      H1584   1.082       .  S
C1576      C1577   1.405       .  A
C1576      C1579   1.491       .  S
C1577      C1578   1.405       .  A
C1577      H1585   1.083       .  S
C1578      H1586   1.081       .  S
C1579      H1587   1.086       .  S
C1579      C1580   1.347       .  D
C1580      H1588   1.086       .  S
C1581      H1589   1.087       .  S
C1581      C1582   1.346       .  D
C1582      H1590   1.084       .  S
C1591      C1592   1.405       .  A
C1591      C1596   1.410       .  A
C1591      C1599   1.494       .  S
C1592      C1593   1.403       .  A
C1592      H1601   1.083       .  S
C1593      C1594   1.408       .  A
C1593      H1602   1.083       .  S
C1594      C1595   1.403       .  A
C1594      C1597   1.492       .  S
C1595      C1596   1.402       .  A
C1595      H1603   1.083       .  S
C1596      H1604   1.081       .  S
C1597      H1605   1.086       .  S
C1597      C1598   1.345       .  D
C1598      H1606   1.087       .  S
C1599      H1607   1.086       .  S
C1599      C1600   1.347       .  D
C1600      H1608   1.085       .  S
C1609      C1610   1.405       .  A
C1609      C1614   1.405       .  A
C1609      C1617   1.487       .  S
C1610      C1611   1.403       .  A
C1610      H1619   1.083       .  S
C1611      C1612   1.409       .  A
C1611      H1620   1.080       .  S
C1612      C1613   1.406       .  A
C1612      C1615   1.491       .  S
C1613      C1614   1.396       .  A
C1613      H1621   1.083       .  S
C1614      H1622   1.082       .  S
C1615      H1623   1.085       .  S
C1615      C1616   1.351       .  D
C1616      H1624   1.082       .  S
C1617      H1625   1.087       .  S
C1617      C1618   1.347       .  D
C1618      H1626   1.086       .  S
C1627      C1628   1.409       .  A
C1627      C1632   1.404       .  A
C1627      C1635   1.489       .  S
C1628      C1629   1.399       .  A
C1628      H1637   1.079       .  S
C1629      C1630   1.408       .  A
C1629      H1638   1.080       .  S
C1630      C1631   1.403       .  A
C1630      C1633   1.487       .  S
C1631      C1632   1.396       .  A
C1631      H1639   1.084       .  S
C1632      H1640   1.084       .  S
C1633      H1641   1.087       .  S
C1633      C1634   1.348       .  D
C1634      H1642   1.081       .  S
C1635      H1643   1.087       .  S
C1635      C1636   1.348       .  D
C1636      H1644   1.083       .  S
C1645      C1646   1.408       .  A
C1645      C1650   1.405       .  A
C1645      C1653   1.492       .  S
C1646      C1647   1.406       .  A
C1646      H1655   1.081       .  S
C1647      C1648   1.411       .  A
C1647      H1656   1.081       .  S
C1648      C1649   1.401       .  A
C1648      C1651   1.493       .  S
C1649      C1650   1.396       .  A
C1649      H1657   1.084       .  S
C1650      H1658   1.084       .  S
C1651      H1659   1.087       .  S
C1651      C1652   1.346       .  D
C1652      H1660   1.085       .  S
C1653      H1661   1.086       .  S
C1653      C1654   1.353       .  D
C1654      H1662   1.084       .  S
C1663      C1664   1.403       .  A
C1663      C1668   1.405       .  A
C1663      C1671   1.482       .  S
C1664      C1665   1.398       .  A
C1664      H1673   1.084       .  S
C1665      C1666   1.408       .  A
C1665      H1674   1.080       .  S
C1666      C1667   1.404       .  A
C1666      C1669   1.486       .  S
C1667      C1668   1.396       .  A
C1667      H1675   1.083       .  S
C1668      H1676   1.082       .  S
C1669      H1677   1.087       .  S
C1669      C1670   1.346       .  D
C1670      H1678   1.080       .  S
C1671      H1679   1.087       .  S
C1671      C1672   1.347       .  D
C1672      H1680   1.086       .  S
C1681      C1682   1.404   1_455  A
C1681      C1686   1.411       .  A
C1681      C1689   1.496       .  S
C1682      C1683   1.399       .  A
C1682      H1691   1.083       .  S
C1683      C1684   1.408       .  A
C1683      H1692   1.082       .  S
C1684      C1685   1.403   1_655  A
C1684      C1687   1.490       .  S
C1685      C1686   1.403       .  A
C1685      H1693   1.083       .  S
C1686      H1694   1.080       .  S
C1687      H1695   1.086   1_655  S
C1687      C1688   1.346       .  D
C1688      H1696   1.085       .  S
C1689      H1697   1.087       .  S
C1689      C1690   1.348       .  D
C1690      H1698   1.084       .  S
C1699      C1700   1.403       .  A
C1699      C1704   1.408   1_655  A
C1699      C1707   1.491       .  S
C1700      C1701   1.400       .  A
C1700      H1709   1.083       .  S
C1701      C1702   1.409   1_655  A
C1701      H1710   1.080       .  S
C1702      C1703   1.406       .  A
C1702      C1705   1.494       .  S
C1703      C1704   1.401       .  A
C1703      H1711   1.084       .  S
C1704      H1712   1.081       .  S
C1705      H1713   1.085       .  S
C1705      C1706   1.350   1_455  D
C1706      H1714   1.082       .  S
C1707      H1715   1.087       .  S
C1707      C1708   1.348       .  D
C1708      H1716   1.085       .  S
C1717      C1718   1.405       .  A
C1717      C1722   1.409       .  A
C1717      C1725   1.492       .  S
C1718      C1719   1.400       .  A
C1718      H1727   1.084       .  S
C1719      C1720   1.407       .  A
C1719      H1728   1.081       .  S
C1720      C1721   1.404       .  A
C1720      C1723   1.490       .  S
C1721      C1722   1.400       .  A
C1721      H1729   1.083   1_655  S
C1722      H1730   1.080       .  S
C1723      H1731   1.087       .  S
C1723      C1724   1.348       .  D
C1724      H1732   1.085       .  S
C1725      H1733   1.086       .  S
C1725      C1726   1.348       .  D
C1726      H1734   1.082       .  S
C1735      C1736   1.405       .  A
C1735      C1740   1.408   1_655  A
C1735      C1743   1.492       .  S
C1736      C1737   1.401       .  A
C1736      H1745   1.083       .  S
C1737      C1738   1.408       .  A
C1737      H1746   1.080       .  S
C1738      C1739   1.404       .  A
C1738      C1741   1.490       .  S
C1739      C1740   1.396   1_655  A
C1739      H1747   1.084   1_655  S
C1740      H1748   1.079       .  S
C1741      H1749   1.084       .  S
C1741      C1742   1.350       .  D
C1742      H1750   1.082       .  S
C1743      H1751   1.087       .  S
C1743      C1744   1.348   1_655  D
C1744      H1752   1.083       .  S
C1753      C1754   1.406   1_455  A
C1753      C1758   1.408       .  A
C1753      C1761   1.494       .  S
C1754      C1755   1.405       .  A
C1754      H1763   1.083       .  S
C1755      C1756   1.408   1_655  A
C1755      H1764   1.082       .  S
C1756      C1757   1.402       .  A
C1756      C1759   1.487       .  S
C1757      C1758   1.395       .  A
C1757      H1765   1.084       .  S
C1758      H1766   1.082       .  S
C1759      H1767   1.087       .  S
C1759      C1760   1.348   1_455  D
C1760      H1768   1.082       .  S
C1761      H1769   1.086       .  S
C1761      C1762   1.347       .  D
C1762      H1770   1.086       .  S
C1771      C1772   1.402   1_655  A
C1771      C1776   1.409       .  A
C1771      C1779   1.490       .  S
C1772      C1773   1.399   1_455  A
C1772      H1781   1.083       .  S
C1773      C1774   1.408       .  A
C1773      H1782   1.081   1_655  S
C1774      C1775   1.404       .  A
C1774      C1777   1.489       .  S
C1775      C1776   1.401       .  A
C1775      H1783   1.084       .  S
C1776      H1784   1.082       .  S
C1777      H1785   1.086       .  S
C1777      C1778   1.345       .  D
C1778      H1786   1.084   1_655  S
C1779      H1787   1.087   1_655  S
C1779      C1780   1.346       .  D
C1780      H1788   1.086       .  S
