geometry optimzed in LAMMPS
_audit_creation_date              2020-11-30 
_audit_creation_method            'lammps2cif' 
_symmetry_space_group_name_H-M    'P1' 
_symmetry_Int_Tables_number       1 
_symmetry_cell_setting            triclinic 
loop_ 
_symmetry_equiv_pos_as_xyz 
  x,y,z 
_cell_length_a                    39.9062834629544 
_cell_length_b                    39.07515568618205 
_cell_length_c                    39.294634738446796 
_cell_angle_alpha                 89.55312278318486 
_cell_angle_beta                  89.74147069916016 
_cell_angle_gamma                 90.26946569096982 
loop_ 
_atom_site_label 
_atom_site_type_symbol 
_atom_site_fract_x 
_atom_site_fract_y 
_atom_site_fract_z 
_atom_site_charge 
O1          O  0.52088694  0.83196262  0.77543991    -0.86210
O2          O  0.55058720  0.87213001  0.72408943    -0.83250
C3          C  0.54936587  0.86473070  0.69121047     0.97250
O4          O  0.52178589  0.86511997  0.67687862    -0.83290
O5          O  0.46283962  0.84118435  0.67443722    -0.85930
C6          C  0.46439781  0.81079902  0.68523258     1.01780
O7          O  0.46906051  0.80367107  0.71627996    -0.78690
O8          O  0.47003141  0.81916270  0.78718805    -0.78880
C9          C  0.50019365  0.81127779  0.78787775     1.01730
O10         O  0.46966893  0.88988147  0.80020984    -0.86210
O11         O  0.50685415  0.92922409  0.75481791    -0.83270
C12         C  0.50847478  0.94424135  0.72674196     0.97270
O13         O  0.50173731  0.92854145  0.69997399    -0.83300
O14         O  0.43747121  0.90175234  0.70431458    -0.85900
C15         C  0.41374974  0.88092512  0.70016956     1.01750
O16         O  0.41595793  0.85079673  0.71063852    -0.78720
O17         O  0.42483444  0.87023169  0.77374624    -0.78870
C18         C  0.43650182  0.88817944  0.79707242     1.01710
Cr19       Cr  0.51049384  0.87976476  0.76263149     1.93740
Cr20       Cr  0.48040924  0.88358920  0.69219866     1.93210
Cr21       Cr  0.44818417  0.83766305  0.74608908     1.39100
O22         O  0.48052052  0.86715134  0.73373408    -1.23960
O23         O  0.45989459  0.18802976  0.74976521    -0.86210
O24         O  0.52086941  0.15768565  0.77251214    -0.83250
C25         C  0.52014649  0.15697236  0.80617099     0.97250
O26         O  0.49405773  0.14479081  0.81884887    -0.83290
O27         O  0.43770386  0.11085452  0.83135576    -0.85930
C28         C  0.42044255  0.13811036  0.82944584     1.01780
O29         O  0.40889722  0.14738886  0.80154531    -0.78690
O30         O  0.41021342  0.17002798  0.73615258    -0.78880
C31         C  0.43271143  0.19337646  0.73527048     1.01730
O32         O  0.44063354  0.13628538  0.69477417    -0.86210
O33         O  0.50176447  0.10432005  0.72065323    -0.83270
C34         C  0.51758435  0.08509523  0.74051969     0.97270
O35         O  0.51826490  0.09188648  0.77212076    -0.83300
O36         O  0.46150864  0.05925557  0.78228642    -0.85900
C37         C  0.43114620  0.05287245  0.78000963     1.01750
O38         O  0.40951820  0.07658747  0.78350004    -0.78720
O39         O  0.41364279  0.09601018  0.72001681    -0.78870
C40         C  0.41523231  0.11435658  0.69445690     1.01710
Cr41       Cr  0.48019240  0.14579029  0.73537401     1.93740
Cr42       Cr  0.47658042  0.10273724  0.79930534     1.93210
Cr43       Cr  0.41284536  0.12263994  0.76103869     1.39100
O44         O  0.45670777  0.12358837  0.76521273    -1.23960
O45         O  0.50422395  0.42251560  0.76138931    -0.86210
O46         O  0.52451826  0.39671220  0.70220938    -0.83250
C47         C  0.55467473  0.38568819  0.69309564     0.97250
O48         O  0.56315860  0.35734123  0.70421631    -0.83290
O49         O  0.58429775  0.34779114  0.76472115    -0.85930
C50         C  0.58543696  0.37921946  0.77345569     1.01780
O51         O  0.56405909  0.39077872  0.79417809    -0.78690
O52         O  0.49699716  0.40871046  0.81309855    -0.78880
C53         C  0.49151032  0.42946899  0.78911782     1.01730
O54         O  0.45409319  0.36985295  0.78835283    -0.86210
O55         O  0.46673904  0.34246410  0.72009338    -0.83270
C56         C  0.47836600  0.31545432  0.70801046     0.97270
O57         O  0.50925214  0.30879947  0.71024727    -0.83300
O58         O  0.53113595  0.29278148  0.77130825    -0.85900
C59         C  0.54651763  0.29455499  0.79839274     1.01750
O60         O  0.55183664  0.32314274  0.81211792    -0.78720
O61         O  0.48629475  0.33637152  0.81854262    -0.78870
C62         C  0.45908132  0.35183174  0.81695385     1.01710
Cr63       Cr  0.48835696  0.38109668  0.74299101     1.93740
Cr64       Cr  0.54463239  0.32842551  0.73967235     1.93210
Cr65       Cr  0.52493695  0.36438642  0.80669322     1.39100
O66         O  0.51866947  0.35741190  0.76238224    -1.23960
O67         O  0.48938090  0.67527504  0.72624759    -0.86210
O68         O  0.44068239  0.64060040  0.69884872    -0.83250
C69         C  0.43074843  0.62399854  0.67193676     0.97250
O70         O  0.43859510  0.59290212  0.67235296    -0.83290
O71         O  0.49170438  0.60928293  0.63556036    -0.85930
C72         C  0.49569255  0.64166837  0.63655537     1.01780
O73         O  0.51206325  0.65691056  0.66015586    -0.78690
O74         O  0.54120135  0.67079711  0.72803351    -0.78880
C75         C  0.51595218  0.68611200  0.73771859     1.01730
O76         O  0.52534447  0.61716791  0.76802608    -0.86210
O77         O  0.46012644  0.58262153  0.75172516    -0.83270
C78         C  0.46348549  0.55227593  0.74161981     0.97270
O79         O  0.47688427  0.54584458  0.71322319    -0.83300
O80         O  0.53054423  0.55542556  0.67280868    -0.85900
C81         C  0.55310978  0.57371298  0.66040090     1.01750
O82         O  0.54715073  0.60403947  0.65576281    -0.78720
O83         O  0.56581811  0.60962806  0.72882330    -0.78870
C84         C  0.55764471  0.61014274  0.76048085     1.01710
Cr85       Cr  0.47947300  0.62720026  0.73556790     1.93740
Cr86       Cr  0.48620445  0.57800095  0.67559291     1.93210
Cr87       Cr  0.53939035  0.63360834  0.69313996     1.39100
O88         O  0.50242694  0.61069726  0.70322731    -1.23960
O89         O  0.81644983  0.21838959  0.98810070    -0.86210
O90         O  0.83529713  0.27221489  0.93782690    -0.83250
C91         C  0.84968114  0.30061520  0.92700984     0.97250
O92         O  0.88034507  0.30245467  0.93439026    -0.83290
O93         O  0.85377586  0.33618985  0.98586796    -0.85930
C94         C  0.83513834  0.33886956  0.01115537     1.01780
O95         O  0.83593923  0.31819007  0.03573461    -0.78690
O96         O  0.79910190  0.26203169  0.01661741    -0.78880
C97         C  0.79307086  0.23398550  0.00247027     1.01730
O98         O  0.88545317  0.20554582  0.01115053    -0.86210
O99         O  0.90294155  0.24207014  0.94632250    -0.83270
C100        C  0.93007810  0.25152191  0.95909785     0.97270
O101        O  0.93044948  0.27531316  0.98061346    -0.83300
O102        O  0.90478955  0.31922869  0.03005810    -0.85900
C103        C  0.90262806  0.30152449  0.05665792     1.01750
O104        O  0.88678562  0.27397206  0.05795577    -0.78720
O105        O  0.84712006  0.21947132  0.04672859    -0.78870
C106        C  0.87397861  0.20382174  0.04258176     1.01710
Cr107      Cr  0.86033291  0.23585626  0.97138839     1.93740
Cr108      Cr  0.89102923  0.30552970  0.98387699     1.93210
Cr109      Cr  0.84382421  0.26913268  0.03666432     1.39100
O110        O  0.86482097  0.27048176  0.99741955    -1.23960
O111        O  0.63859699  0.22187482  0.01920468    -0.86210
O112        O  0.63828713  0.29725240  0.02700589    -0.83250
C113        C  0.62366845  0.32681569  0.03329589     0.97250
O114        O  0.59592586  0.33026822  0.01967362    -0.83290
O115        O  0.63218933  0.34712306  0.96085611    -0.85930
C116        C  0.66151675  0.33451252  0.96604963     1.01780
O117        O  0.66599824  0.30370518  0.97116246    -0.78690
O118        O  0.66339905  0.23513998  0.96943087    -0.78880
C119        C  0.66233713  0.21787890  0.99775241     1.01730
O120        O  0.59861378  0.21839594  0.95570821    -0.86210
O121        O  0.57721928  0.25816930  0.01704923    -0.83270
C122        C  0.55053214  0.27357546  0.00919008     0.97270
O123        O  0.54862048  0.29652202  0.98567634    -0.83300
O124        O  0.57645605  0.31993693  0.92273225    -0.85900
C125        C  0.59792311  0.31093381  0.90102306     1.01750
O126        O  0.62851673  0.31105264  0.90900991    -0.78720
O127        O  0.62094259  0.24221348  0.91053375    -0.78870
C128        C  0.60256708  0.21872308  0.92202435     1.01710
Cr129      Cr  0.61902267  0.25669535  0.99237704     1.93740
Cr130      Cr  0.58878399  0.32261956  0.97093574     1.93210
Cr131      Cr  0.64327543  0.27454146  0.94048980     1.39100
O132        O  0.60806505  0.28363226  0.96477979    -1.23960
O133        O  0.32119127  0.29682979  0.99716732    -0.86210
O134        O  0.33326588  0.23308535  0.03831692    -0.83250
C135        C  0.34543070  0.20198271  0.04298573     0.97250
O136        O  0.37455737  0.19917348  0.03215585    -0.83290
O137        O  0.34490169  0.18970089  0.97127758    -0.85930
C138        C  0.33914511  0.19073001  0.94018963     1.01780
O139        O  0.34478606  0.21670955  0.92245457    -0.78690
O140        O  0.30583143  0.26341107  0.95570551    -0.78880
C141        C  0.29895688  0.28580494  0.97758969     1.01730
O142        O  0.39366341  0.31088740  0.98259570    -0.86210
O143        O  0.40239615  0.25966634  0.03835051    -0.83270
C144        C  0.42838215  0.24529087  0.02793901     0.97270
O145        O  0.42882088  0.22990054  0.99992389    -0.83300
O146        O  0.40588467  0.21068060  0.93907591    -0.85900
C147        C  0.41349390  0.23452586  0.91875216     1.01750
O148        O  0.39788613  0.26237128  0.91913181    -0.78720
O149        O  0.35552524  0.31170825  0.94531370    -0.78870
C150        C  0.38415423  0.32145585  0.95226584     1.01710
Cr151      Cr  0.36267082  0.27482978  0.01306764     1.93740
Cr152      Cr  0.38706488  0.20977343  0.98465716     1.93210
Cr153      Cr  0.35194637  0.26250043  0.93832380     1.39100
O154        O  0.36748138  0.24911642  0.97874436    -1.23960
O155        O  0.15485593  0.25290469  0.97777001    -0.86210
O156        O  0.12341943  0.20181157  0.94108700    -0.83250
C157        C  0.13335109  0.16959251  0.93830237     0.97250
O158        O  0.13063608  0.15057150  0.96355159    -0.83290
O159        O  0.14585931  0.13863654  0.02730364    -0.85930
C160        C  0.17383805  0.14820080  0.01569152     1.01780
O161        O  0.18324008  0.17836404  0.02207574    -0.78690
O162        O  0.17461645  0.24908531  0.02885082    -0.78880
C163        C  0.17412049  0.26331904  0.00011375     1.01730
O164        O  0.09919918  0.26726583  0.02949400    -0.86210
O165        O  0.06488116  0.22154394  0.99044581    -0.83270
C166        C  0.05316734  0.19756631  0.97389273     0.97270
O167        O  0.06659619  0.16880704  0.97645855    -0.83300
O168        O  0.08150216  0.16161385  0.04752633    -0.85900
C169        C  0.09674294  0.17146657  0.07364572     1.01750
O170        O  0.12835716  0.17151702  0.07324906    -0.78720
O171        O  0.12137084  0.24049387  0.07338633    -0.78870
C172        C  0.10325186  0.26478535  0.06285927     1.01710
Cr173      Cr  0.11099475  0.23391468  0.98592198     1.93740
Cr174      Cr  0.10678191  0.15790539  0.00519883     1.93210
Cr175      Cr  0.15070042  0.20854492  0.04709171     1.39100
O176        O  0.12285145  0.20087002  0.01235572    -1.23960
O177        O  0.76673395  0.52087007  0.82657409    -0.86210
O178        O  0.70788259  0.55372169  0.85561472    -0.83250
C179        C  0.68187226  0.55302250  0.83437249     0.97250
O180        O  0.67731397  0.52482903  0.82156092    -0.83290
O181        O  0.66559802  0.45866321  0.81532625    -0.85930
C182        C  0.68190107  0.45725334  0.78776391     1.01780
O183        O  0.71310705  0.45968525  0.78778068    -0.78690
O184        O  0.77640447  0.46717948  0.81414820    -0.78880
C185        C  0.78267578  0.49885240  0.81016800     1.01730
O186        O  0.78290180  0.47058821  0.88327323    -0.86210
O187        O  0.72489838  0.50207081  0.91374811    -0.83270
C188        C  0.69922653  0.51934368  0.91912509     0.97270
O189        O  0.67651487  0.51914317  0.89666829    -0.83300
O190        O  0.67150185  0.45049214  0.88417408    -0.85900
C191        C  0.68299146  0.42198513  0.87645172     1.01750
O192        O  0.69498626  0.41684409  0.84699388    -0.78720
O193        O  0.75614989  0.42407458  0.86929016    -0.78870
C194        C  0.78132951  0.43657282  0.88293007     1.01710
Cr195      Cr  0.74470186  0.51066905  0.86915404     1.93740
Cr196      Cr  0.67506131  0.48786882  0.85430376     1.93210
Cr197      Cr  0.73405531  0.44452370  0.83037583     1.39100
O198        O  0.71851912  0.48084472  0.85138005    -1.23960
O199        O  0.76165970  0.51260402  0.42075375    -0.86210
O200        O  0.70432222  0.52822253  0.39435932    -0.83250
C201        C  0.70585496  0.56163643  0.38961150     0.97250
O202        O  0.72363878  0.57238452  0.36547205    -0.83290
O203        O  0.78100473  0.57992652  0.33271048    -0.85930
C204        C  0.79564938  0.58463457  0.36073870     1.01780
O205        O  0.80287366  0.55969175  0.37978712    -0.78690
O206        O  0.81015056  0.49432260  0.40944475    -0.78880
C207        C  0.78603208  0.49618388  0.43009381     1.01730
O208        O  0.78269355  0.44860194  0.37817287    -0.86210
O209        O  0.71937635  0.46702555  0.34432793    -0.83270
C210        C  0.70535209  0.48395648  0.32101930     0.97270
O211        O  0.70369302  0.51608024  0.32349460    -0.83300
O212        O  0.76562059  0.52107559  0.29060591    -0.85900
C213        C  0.79691026  0.52482965  0.28864865     1.01750
O214        O  0.81404336  0.53157898  0.31482116    -0.78720
O215        O  0.81201389  0.47224778  0.33835645    -0.78870
C216        C  0.80949229  0.44783161  0.35799842     1.01710
Cr217      Cr  0.74204414  0.48931303  0.38307150     1.93740
Cr218      Cr  0.74445685  0.54512861  0.32910214     1.93210
Cr219      Cr  0.80761849  0.51529185  0.36087841     1.39100
O220        O  0.76417321  0.51590172  0.35675033    -1.23960
O221        O  0.74333391  0.47012695  0.58043307    -0.86210
O222        O  0.78841623  0.53027248  0.59312749    -0.83250
C223        C  0.79850730  0.55939562  0.60619043     0.97250
O224        O  0.78780149  0.56221116  0.63500514    -0.83290
O225        O  0.74095612  0.58213482  0.58282238    -0.85930
C226        C  0.71559398  0.57832998  0.56386570     1.01780
O227        O  0.68910821  0.56654798  0.57653036    -0.78690
O228        O  0.70930428  0.50458218  0.55444945    -0.78880
C229        C  0.73262491  0.48268626  0.55375044     1.01730
O230        O  0.71539873  0.46185211  0.64689649    -0.86210
O231        O  0.77016324  0.50968992  0.66494777    -0.83270
C232        C  0.75943479  0.52872131  0.68800934     0.97270
O233        O  0.73886065  0.55262686  0.68119620    -0.83300
O234        O  0.69616005  0.58707540  0.63649403    -0.85900
C235        C  0.67307572  0.57041319  0.64955049     1.01750
O236        O  0.66564581  0.54068489  0.63874383    -0.78720
O237        O  0.67423053  0.47463327  0.61232667    -0.78870
C238        C  0.68409704  0.45663910  0.63689004     1.01710
Cr239      Cr  0.75364708  0.49453033  0.62139318     1.93740
Cr240      Cr  0.73936358  0.56822813  0.63252830     1.93210
Cr241      Cr  0.68706516  0.52179124  0.59719541     1.39100
O242        O  0.72547867  0.52710800  0.61859886    -1.23960
O243        O  0.71795886  0.55507611  0.07603175    -0.86210
O244        O  0.68170549  0.49112009  0.09378073    -0.83250
C245        C  0.67899781  0.45876573  0.10284375     0.97250
O246        O  0.69825445  0.45176695  0.12613054    -0.83290
O247        O  0.73991880  0.44984430  0.06910524    -0.85930
C248        C  0.76623523  0.45112797  0.05171145     1.01780
O249        O  0.78876923  0.47258138  0.05775192    -0.78690
O250        O  0.75526885  0.52888228  0.04464615    -0.78880
C251        C  0.73046251  0.54833309  0.04718249     1.01730
O252        O  0.75695575  0.55646184  0.14438028    -0.86210
O253        O  0.70995334  0.50411165  0.16436430    -0.83270
C254        C  0.72579841  0.48212797  0.18163882     0.97270
O255        O  0.74928526  0.46516622  0.16765814    -0.83300
O256        O  0.79465474  0.44838865  0.11438809    -0.85900
C257        C  0.81650717  0.46842413  0.12499892     1.01750
O258        O  0.81520528  0.49987341  0.11785336    -0.78720
O259        O  0.78649164  0.56174781  0.09908766    -0.78870
C260        C  0.78534726  0.56625418  0.13034669     1.01710
Cr261      Cr  0.71783301  0.52634404  0.11906694     1.93740
Cr262      Cr  0.74634782  0.45644289  0.11811076     1.93210
Cr263      Cr  0.78415510  0.51487014  0.08184129     1.39100
O264        O  0.74982698  0.49984220  0.10724113    -1.23960
O265        O  0.23047265  0.95681296  0.89833138    -0.86210
O266        O  0.20421158  0.02179066  0.87180318    -0.83250
C267        C  0.20867450  0.05513414  0.86878452     0.97250
O268        O  0.23520880  0.06441623  0.85344622    -0.83290
O269        O  0.30361326  0.06135851  0.85722965    -0.85930
C270        C  0.30625064  0.06726575  0.88817376     1.01780
O271        O  0.29787758  0.04616542  0.91156270    -0.78690
O272        O  0.26277292  0.98644982  0.93403932    -0.78880
C273        C  0.23849311  0.96593669  0.92792512     1.01730
O274        O  0.27992852  0.94737076  0.84283857    -0.86210
O275        O  0.20914673  0.95947725  0.83013315    -0.83270
C276        C  0.21730953  0.97882820  0.80509291     0.97270
O277        O  0.23729394  0.00492283  0.80818613    -0.83300
O278        O  0.30730545  0.00339249  0.82155978    -0.85900
C279        C  0.33524295  0.00392570  0.83656074     1.01750
O280        O  0.33691612  0.00636508  0.86871037    -0.78720
O281        O  0.30492945  0.94788199  0.89179251    -0.78870
C282        C  0.30535402  0.93764994  0.86150448     1.01710
Cr283      Cr  0.24088999  0.98292544  0.85710668     1.93740
Cr284      Cr  0.27101393  0.03253296  0.83683375     1.93210
Cr285      Cr  0.29932335  0.99752896  0.90140361     1.39100
O286        O  0.26865481  0.00741116  0.87269978    -1.23960
O287        O  0.25708293  0.04700921  0.39432354    -0.86210
O288        O  0.29230002  0.98113576  0.37492242    -0.83250
C289        C  0.28888549  0.95001748  0.39041937     0.97250
O290        O  0.25961207  0.94037702  0.39651296    -0.83290
O291        O  0.19373194  0.93050423  0.38426975    -0.85930
C292        C  0.18173732  0.94104455  0.41154248     1.01780
O293        O  0.19346154  0.96762501  0.42401638    -0.78690
O294        O  0.21146110  0.03512238  0.42425372    -0.78880
C295        C  0.23873564  0.05140733  0.41983509     1.01730
O296        O  0.21339771  0.05323315  0.33121430    -0.86210
O297        O  0.25226924  0.00023398  0.30862489    -0.83270
C298        C  0.27233164  0.97654627  0.30481649     0.97270
O299        O  0.27066835  0.95264759  0.32581770    -0.83300
O300        O  0.20225548  0.95967013  0.32226469    -0.85900
C301        C  0.17293176  0.96934932  0.32754392     1.01750
O302        O  0.16276248  0.97863956  0.35701288    -0.78720
O303        O  0.17167048  0.04498319  0.36639208    -0.78870
C304        C  0.18170523  0.05898235  0.33971953     1.01710
Cr305      Cr  0.25312231  0.01970105  0.35365520     1.93740
Cr306      Cr  0.23095138  0.94891948  0.35841767     1.93210
Cr307      Cr  0.18798982  0.00512989  0.39183078     1.39100
O308        O  0.22461605  0.99216221  0.37011341    -1.23960
O309        O  0.23494917  0.01713261  0.55208059    -0.86210
O310        O  0.19009793  0.96877106  0.58898956    -0.83250
C311        C  0.19584585  0.93576277  0.58265284     0.97250
O312        O  0.22507810  0.92626204  0.58646163    -0.83290
O313        O  0.28734292  0.92395873  0.59518053    -0.85930
C314        C  0.29770410  0.93240401  0.56560054     1.01780
O315        O  0.29726481  0.96294670  0.55551734    -0.78690
O316        O  0.28666197  0.03228298  0.56077223    -0.78880
C317        C  0.26083188  0.03332195  0.54311618     1.01730
O318        O  0.26136243  0.05602080  0.61486759    -0.86210
O319        O  0.21395461  0.01122794  0.64895337    -0.83270
C320        C  0.20656272  0.98434792  0.66481568     0.97270
O321        O  0.21195326  0.95550586  0.65182798    -0.83300
O322        O  0.28116231  0.95649781  0.66051300    -0.85900
C323        C  0.31153159  0.95647872  0.65245650     1.01750
O324        O  0.32040486  0.96408590  0.62276061    -0.78720
O325        O  0.30572484  0.02695097  0.62939819    -0.78870
C326        C  0.29250701  0.05544655  0.62744942     1.01710
Cr327      Cr  0.22608928  0.01224779  0.60100922     1.93740
Cr328      Cr  0.25186353  0.94348566  0.62309889     1.93210
Cr329      Cr  0.29943521  0.99575617  0.59247768     1.39100
O330        O  0.25859362  0.98397678  0.60540058    -1.23960
O331        O  0.22856630  0.97744309  0.07016140    -0.86210
O332        O  0.27818534  0.03279033  0.08468660    -0.83250
C333        C  0.28933773  0.06095387  0.09919280     0.97250
O334        O  0.28352422  0.06086040  0.13006587    -0.83290
O335        O  0.22920685  0.08843664  0.09642869    -0.85930
C336        C  0.20374023  0.08118511  0.07965011     1.01780
O337        O  0.17863296  0.07047798  0.09550230    -0.78690
O338        O  0.18614455  0.00988112  0.05785631    -0.78880
C339        C  0.20441977  0.98456298  0.05135406     1.01730
O340        O  0.21278295  0.95799762  0.13970079    -0.86210
O341        O  0.27333301  0.00039299  0.15436940    -0.83270
C342        C  0.26448483  0.01354767  0.18202706     0.97270
O343        O  0.24337210  0.03774204  0.18283321    -0.83300
O344        O  0.19279954  0.07738617  0.15599880    -0.85900
C345        C  0.17103028  0.05697482  0.16620971     1.01750
O346        O  0.16786908  0.02824070  0.15338232    -0.78720
O347        O  0.16749530  0.97339048  0.11282491    -0.78870
C348        C  0.18020151  0.95397079  0.13419561     1.01710
Cr349      Cr  0.24774436  0.99343146  0.11234267     1.93740
Cr350      Cr  0.23556849  0.06363485  0.14004531     1.93210
Cr351      Cr  0.17779918  0.02180805  0.10588571     1.39100
O352        O  0.22020499  0.02545907  0.11937320    -1.23960
O353        O  0.95106005  0.90982399  0.21551822    -0.86210
O354        O  0.02195553  0.90219812  0.20024185    -0.83250
C355        C  0.04915805  0.88747274  0.18840618     0.97250
O356        O  0.05200600  0.85609913  0.19576085    -0.83290
O357        O  0.07950833  0.87239418  0.25697664    -0.85930
C358        C  0.07479489  0.90440179  0.25810795     1.01780
O359        O  0.04607918  0.91704939  0.25600983    -0.78690
O360        O  0.97713250  0.92604383  0.26321423    -0.78880
C361        C  0.95719484  0.93230482  0.23807569     1.01730
O362        O  0.94812289  0.86127753  0.27487535    -0.86210
O363        O  0.97547361  0.84197030  0.20495078    -0.83270
C364        C  0.98727263  0.81202415  0.20818679     0.97270
O365        O  0.01216593  0.80514360  0.22736073    -0.83300
O366        O  0.04317592  0.82162194  0.29065685    -0.85900
C367        C  0.04960833  0.84242974  0.31470842     1.01750
O368        O  0.04796643  0.87395114  0.31114738    -0.78720
O369        O  0.98025527  0.87510922  0.31755372    -0.78870
C370        C  0.95325276  0.86135018  0.30838201     1.01710
Cr371      Cr  0.98398303  0.88107830  0.23529521     1.93740
Cr372      Cr  0.04532998  0.83870609  0.24352488     1.93210
Cr373      Cr  0.01331726  0.89640735  0.28571417     1.39100
O374        O  0.01239001  0.86332598  0.25717825    -1.23960
O375        O  0.98406524  0.30491418  0.26496179    -0.86210
O376        O  0.03160000  0.33926963  0.21685441    -0.83250
C377        C  0.02689761  0.33553349  0.18347012     0.97250
O378        O  0.99875642  0.34399098  0.17314198    -0.83290
O379        O  0.93474417  0.35151750  0.17131279    -0.85930
C380        C  0.92404979  0.32238607  0.18160700     1.01780
O381        O  0.92330025  0.31370174  0.21219539    -0.78690
O382        O  0.93320260  0.31832971  0.27956243    -0.78880
C383        C  0.95686287  0.29772507  0.27995425     1.01730
O384        O  0.96224902  0.36938803  0.30283545    -0.86210
O385        O  0.01004483  0.40205005  0.25851485    -0.83270
C386        C  0.01771175  0.41951332  0.23271130     0.97270
O387        O  0.01034846  0.40871041  0.20360456    -0.83300
O388        O  0.94271814  0.41824308  0.20601669    -0.85900
C389        C  0.91204173  0.41190386  0.20677538     1.01750
O390        O  0.90264020  0.38168583  0.21086161    -0.78720
O391        O  0.91929341  0.38871557  0.27430733    -0.78870
C392        C  0.93228294  0.38431922  0.30253914     1.01710
Cr393      Cr  0.99605695  0.35401886  0.25945057     1.93740
Cr394      Cr  0.97092667  0.37991216  0.19138075     1.93210
Cr395      Cr  0.92256153  0.35099773  0.24336759     1.39100
O396        O  0.96401047  0.36097459  0.23127127    -1.23960
O397        O  0.00094712  0.57980780  0.24619940    -0.86210
O398        O  0.94558982  0.61396700  0.20736579    -0.83250
C399        C  0.91261826  0.60658625  0.20960113     0.97250
O400        O  0.89974430  0.60707693  0.23851896    -0.83290
O401        O  0.89293261  0.61489889  0.30835529    -0.85930
C402        C  0.89222265  0.58380547  0.30275295     1.01780
O403        O  0.91883606  0.56814339  0.30774185    -0.78690
O404        O  0.98343086  0.55513277  0.29354993    -0.78880
C405        C  0.99934325  0.55417164  0.26566579     1.01730
O406        O  0.02085698  0.64244712  0.28800702    -0.86210
O407        O  0.97614188  0.67653043  0.24505959    -0.83270
C408        C  0.95118831  0.68668247  0.22905628     0.97270
O409        O  0.92473536  0.67036566  0.23216922    -0.83300
O410        O  0.93160800  0.67270282  0.30145052    -0.85900
C411        C  0.94366660  0.66417095  0.32968719     1.01750
O412        O  0.94123872  0.63326179  0.34061317    -0.78720
O413        O  0.00369869  0.61298617  0.33245849    -0.78870
C414        C  0.02391848  0.63466186  0.32072227     1.01710
Cr415      Cr  0.98445062  0.62706211  0.24798452     1.93740
Cr416      Cr  0.91464069  0.63980579  0.27130294     1.93210
Cr417      Cr  0.96063317  0.59402830  0.31577442     1.39100
O418        O  0.95374450  0.61847423  0.27750798    -1.23960
O419        O  0.96151905  0.15259709  0.28110343    -0.86210
O420        O  0.93761453  0.14598133  0.20653352    -0.83250
C421        C  0.94192594  0.14746630  0.17313144     0.97250
O422        O  0.97056869  0.14027398  0.16307316    -0.83290
O423        O  0.02967051  0.16698495  0.17113387    -0.85930
C424        C  0.02741022  0.19887174  0.17770099     1.01780
O425        O  0.01934560  0.21056256  0.20682014    -0.78690
O426        O  0.99311528  0.19892356  0.27388854    -0.78880
C427        C  0.97050422  0.18216198  0.28988368     1.01730
O428        O  0.01866099  0.10322775  0.27099174    -0.86210
O429        O  0.94709345  0.09303646  0.25366206    -0.83270
C430        C  0.95614190  0.07336441  0.23026136     0.97270
O431        O  0.97971595  0.08208868  0.20823314    -0.83300
O432        O  0.04703994  0.11240630  0.21500737    -0.85900
C433        C  0.07130242  0.13290966  0.21299503     1.01750
O434        O  0.06861665  0.16369038  0.22108477    -0.78720
O435        O  0.04504622  0.15045731  0.28454322    -0.78870
C436        C  0.04524935  0.11802105  0.28497064     1.01710
Cr437      Cr  0.97649228  0.12620114  0.24143377     1.93740
Cr438      Cr  0.00777102  0.12659704  0.19135536     1.93210
Cr439      Cr  0.02947383  0.18036272  0.24571499     1.39100
O440        O  0.00124911  0.15312404  0.22558696    -1.23960
O441        O  0.90659664  0.74055225  0.51543788    -0.86210
O442        O  0.89381847  0.79783691  0.47008880    -0.83250
C443        C  0.88093215  0.81295285  0.44330965     0.97250
O444        O  0.84941399  0.81200141  0.44308408    -0.83290
O445        O  0.86233802  0.75655079  0.40565320    -0.85930
C446        C  0.87310255  0.72663586  0.40338695     1.01780
O447        O  0.85888977  0.70413850  0.41990453    -0.78690
O448        O  0.91447865  0.71405201  0.46796444    -0.78880
C449        C  0.92613443  0.72677822  0.49515013     1.01730
O450        O  0.84226694  0.72835016  0.54165260    -0.86210
O451        O  0.82888830  0.79906141  0.51088717    -0.83270
C452        C  0.79929378  0.79445217  0.50126536     0.97270
O453        O  0.79310163  0.77759597  0.47471265    -0.83300
O454        O  0.80104108  0.72443312  0.43094642    -0.85900
C455        C  0.80001222  0.69602818  0.44649513     1.01750
O456        O  0.81603820  0.69230922  0.47365862    -0.78720
O457        O  0.87005507  0.68848130  0.51683954    -0.78870
C458        C  0.85088914  0.69568849  0.54070249     1.01710
Cr459      Cr  0.86675484  0.76655341  0.50779059     1.93740
Cr460      Cr  0.82763144  0.76611396  0.44090982     1.93210
Cr461      Cr  0.86425857  0.70214476  0.46908489     1.39100
O462        O  0.85246599  0.74499513  0.47296663    -1.23960
O463        O  0.33564316  0.71240827  0.46944769    -0.86210
O464        O  0.35019621  0.78349926  0.43996386    -0.83250
C465        C  0.35935621  0.81618238  0.44098476     0.97250
O466        O  0.38328106  0.82114359  0.46057561    -0.83290
O467        O  0.33549238  0.82591541  0.50845007    -0.85930
C468        C  0.31085192  0.81601460  0.52595756     1.01780
O469        O  0.31246316  0.79019829  0.54488954    -0.78690
O470        O  0.30098222  0.73969046  0.50223491    -0.78880
C471        C  0.30650997  0.71837057  0.47921055     1.01730
O472        O  0.39830832  0.70832766  0.51009523    -0.86210
O473        O  0.41760957  0.76536827  0.46113620    -0.83270
C474        C  0.43850946  0.77911843  0.48001943     0.97270
O475        O  0.42841915  0.79417762  0.50643296    -0.83300
O476        O  0.38430221  0.80651377  0.55997617    -0.85900
C477        C  0.38480786  0.78026008  0.57885749     1.01750
O478        O  0.36763707  0.75442015  0.57262693    -0.78720
O479        O  0.35080867  0.70020868  0.53462480    -0.78870
C480        C  0.38149743  0.69452890  0.53601608     1.01710
Cr481      Cr  0.37493637  0.74313074  0.47168094     1.93740
Cr482      Cr  0.38107141  0.80871420  0.50953296     1.93210
Cr483      Cr  0.33525826  0.74810999  0.53645460     1.39100
O484        O  0.36397934  0.76669964  0.50631079    -1.23960
O485        O  0.67859375  0.74519883  0.52130337    -0.86210
O486        O  0.65048691  0.72115033  0.46143664    -0.83250
C487        C  0.64704572  0.68738615  0.45953228     0.97250
O488        O  0.62769818  0.67331036  0.48000614    -0.83290
O489        O  0.60715828  0.66221088  0.54089147    -0.85930
C490        C  0.63753144  0.66328765  0.55070491     1.01780
O491        O  0.64682377  0.68835983  0.56782512    -0.78690
O492        O  0.66291837  0.75721285  0.57229601    -0.78880
C493        C  0.68367449  0.76100836  0.54808944     1.01730
O494        O  0.62553645  0.79762362  0.54231246    -0.86210
O495        O  0.59495352  0.77429658  0.48075051    -0.83270
C496        C  0.57457642  0.75560325  0.46539042     0.97270
O497        O  0.57926889  0.72369251  0.46496499    -0.83300
O498        O  0.55589706  0.71693791  0.52791196    -0.85900
C499        C  0.55175768  0.71016718  0.55842201     1.01750
O500        O  0.57662641  0.70279815  0.57697563    -0.78720
O501        O  0.59139371  0.76840019  0.57456280    -0.78870
C502        C  0.60620935  0.79599003  0.56979013     1.01710
Cr503      Cr  0.63659302  0.75852945  0.50171173     1.93740
Cr504      Cr  0.59307227  0.69583375  0.50516041     1.93210
Cr505      Cr  0.61957916  0.72836653  0.57051309     1.39100
O506        O  0.61697126  0.72748721  0.52523155    -1.23960
O507        O  0.15915150  0.71392716  0.49443163    -0.86210
O508        O  0.14560518  0.76434915  0.54666034    -0.83250
C509        C  0.13222896  0.79273696  0.55795433     0.97250
O510        O  0.10086632  0.79279473  0.55596586    -0.83290
O511        O  0.11822131  0.82709156  0.49841513    -0.85930
C512        C  0.12530233  0.83082839  0.46768816     1.01780
O513        O  0.12232431  0.80646006  0.44724223    -0.78690
O514        O  0.16709388  0.75607829  0.45892025    -0.78880
C515        C  0.17784615  0.72977484  0.47369976     1.01730
O516        O  0.08711726  0.69245475  0.48453875    -0.86210
O517        O  0.07691675  0.72845083  0.54925994    -0.83270
C518        C  0.04887986  0.73915002  0.53935639     0.97270
O519        O  0.04704244  0.76333439  0.51841222    -0.83300
O520        O  0.06147554  0.80361580  0.46569913    -0.85900
C521        C  0.05942502  0.78315323  0.44148055     1.01750
O522        O  0.07177983  0.75464714  0.44452610    -0.78720
O523        O  0.11897801  0.70580901  0.44301256    -0.78870
C524        C  0.09373062  0.68901178  0.45190844     1.01710
Cr525      Cr  0.11716465  0.72565631  0.51873090     1.93740
Cr526      Cr  0.08327995  0.79415843  0.50903037     1.93210
Cr527      Cr  0.11913549  0.75658422  0.45069044     1.39100
O528        O  0.10795727  0.75956245  0.49330687    -1.23960
C529        C  0.26468300  0.71939311  0.43670165    -0.02710
C530        C  0.27869470  0.70122364  0.46338222     0.06970
C531        C  0.25835927  0.68136479  0.48456867    -0.02820
C532        C  0.22388381  0.68730524  0.48487307    -0.02820
C533        C  0.21127043  0.71589998  0.46600854     0.07110
C534        C  0.23181064  0.73070220  0.44004621    -0.03020
Br535      Br  0.21875140  0.76854817  0.41129496    -0.01570
Br536      Br  0.29299218  0.73231816  0.39924511    -0.01640
Br537      Br  0.19650851  0.65659003  0.51231479    -0.01600
Br538      Br  0.27914125  0.64969530  0.51575273    -0.01580
C539        C  0.48511657  0.74935116  0.44910059    -0.02710
C540        C  0.47402176  0.77739327  0.46921149     0.06970
C541        C  0.49647008  0.80462044  0.47548705    -0.02820
C542        C  0.53060976  0.80094313  0.46724896    -0.02820
C543        C  0.54223133  0.76976789  0.45366565     0.07110
C544        C  0.51886446  0.74706172  0.43970912    -0.03020
Br545      Br  0.53336898  0.71286607  0.40769420    -0.01570
Br546      Br  0.45616515  0.71163383  0.43598895    -0.01640
Br547      Br  0.56089554  0.83904339  0.47312833    -0.01600
Br548      Br  0.48083691  0.84725027  0.49419039    -0.01580
C549        C  0.97936992  0.69534431  0.51151092    -0.02710
C550        C  0.96087916  0.72598767  0.50803046     0.06970
C551        C  0.96975191  0.75408284  0.52917284    -0.02820
C552        C  0.99335325  0.74972834  0.55489523    -0.02820
C553        C  0.01719220  0.72424569  0.55035951     0.07110
C554        C  0.00790977  0.69478043  0.53255144    -0.03020
Br555      Br  0.03599301  0.65508182  0.53593844    -0.01570
Br556      Br  0.96684206  0.65435675  0.48880342    -0.01640
Br557      Br  0.00286106  0.78582316  0.58672018    -0.01600
Br558      Br  0.95109772  0.79925907  0.52245435    -0.01580
C559        C  0.74297331  0.81814441  0.50435500    -0.02710
C560        C  0.77139317  0.80723708  0.52180161     0.06970
C561        C  0.76841380  0.79700890  0.55624659    -0.02820
C562        C  0.73677106  0.78698743  0.56886097    -0.02820
C563        C  0.70930253  0.78808479  0.54679389     0.07110
C564        C  0.71154580  0.80825567  0.51660951    -0.03020
Br565      Br  0.67317980  0.81816761  0.48862094    -0.01570
Br566      Br  0.74797657  0.84171086  0.46118520    -0.01640
Br567      Br  0.73138279  0.76891356  0.61423936    -0.01600
Br568      Br  0.80737948  0.79399182  0.58470777    -0.01580
C569        C  0.07025742  0.62982640  0.37065229    -0.02710
C570        C  0.04838225  0.65037982  0.34968910     0.06970
C571        C  0.04157640  0.68228065  0.36555547    -0.02820
C572        C  0.04884126  0.68956653  0.40116872    -0.02820
C573        C  0.07296337  0.67110921  0.42119972     0.07110
C574        C  0.08430489  0.64123195  0.40338623    -0.03020
Br575      Br  0.11846880  0.61451363  0.42516611    -0.01570
Br576      Br  0.08393070  0.58662316  0.35263263    -0.01640
Br577      Br  0.01641147  0.71682590  0.42447779    -0.01600
Br578      Br  0.02887351  0.71917579  0.33650447    -0.01580
C579        C  0.95356594  0.68201000  0.38528813    -0.02710
C580        C  0.95555002  0.69152487  0.35136280     0.06970
C581        C  0.94368001  0.72402643  0.34124484    -0.02820
C582        C  0.91493359  0.73567789  0.35770476    -0.02820
C583        C  0.90403319  0.71771023  0.38689978     0.07110
C584        C  0.92329387  0.68985895  0.40033529    -0.03020
Br585      Br  0.90573271  0.65426176  0.43002656    -0.01570
Br586      Br  0.97920139  0.64285042  0.40169987    -0.01640
Br587      Br  0.88592859  0.76789975  0.33472477    -0.01600
Br588      Br  0.95524941  0.74211574  0.29656685    -0.01580
C589        C  0.97467739  0.25556170  0.32362460    -0.02710
C590        C  0.95166656  0.26601656  0.29858020     0.06970
C591        C  0.92278307  0.24565725  0.29232104    -0.02820
C592        C  0.92217034  0.21209323  0.30504933    -0.02820
C593        C  0.95229150  0.19912828  0.31731420     0.07110
C594        C  0.97257342  0.22176490  0.33557773    -0.03020
Br595      Br  0.00419993  0.20359464  0.36731453    -0.01570
Br596      Br  0.00897316  0.28609378  0.33990117    -0.01640
Br597      Br  0.88650663  0.18075243  0.29444944    -0.01600
Br598      Br  0.88678892  0.26077300  0.26334127    -0.01580
C599        C  0.03748574  0.46594560  0.27057934    -0.02710
C600        C  0.03093451  0.45465486  0.23731461     0.06970
C601        C  0.02676928  0.47932047  0.21134711    -0.02820
C602        C  0.01847754  0.51306629  0.22011899    -0.02820
C603        C  0.01585335  0.52203866  0.25503213     0.07110
C604        C  0.02888762  0.49935263  0.27980507    -0.03020
Br605      Br  0.03517090  0.51325584  0.32636382    -0.01570
Br606      Br  0.05799506  0.43552395  0.30336274    -0.01640
Br607      Br  0.00882562  0.54507329  0.18365388    -0.01600
Br608      Br  0.03233375  0.46716983  0.16401439    -0.01580
C609        C  0.94526205  0.82220089  0.36376080    -0.02710
C610        C  0.93112028  0.84607724  0.33977079     0.06970
C611        C  0.90067502  0.86063272  0.35232677    -0.02820
C612        C  0.88549947  0.85128014  0.38539404    -0.02820
C613        C  0.90013677  0.82720403  0.40940223     0.07110
C614        C  0.93070026  0.81316598  0.39686022    -0.03020
Br615      Br  0.95226263  0.77910084  0.42451620    -0.01570
Br616      Br  0.98424822  0.79850381  0.34969696    -0.01640
Br617      Br  0.84443467  0.87363987  0.39803197    -0.01600
Br618      Br  0.87992364  0.89465814  0.32388558    -0.01580
C619        C  0.95969364  0.98978232  0.26083959    -0.02710
C620        C  0.94587442  0.96809938  0.23606696     0.06970
C621        C  0.92921789  0.98351008  0.20813850    -0.02820
C622        C  0.93041657  0.01974040  0.20526604    -0.02820
C623        C  0.94280290  0.03880427  0.23294299     0.07110
C624        C  0.94798505  0.02213617  0.26401007    -0.03020
Br625      Br  0.95743499  0.04452411  0.30682838    -0.01570
Br626      Br  0.00753060  0.99160045  0.26400771    -0.01640
Br627      Br  0.91355078  0.04308354  0.16590461    -0.01600
Br628      Br  0.90860991  0.95662764  0.17313316    -0.01580
C629        C  0.93719835  0.77687242  0.20213420    -0.02710
C630        C  0.97029359  0.78366076  0.19178856     0.06970
C631        C  0.99043184  0.75704333  0.17971222    -0.02820
C632        C  0.98176357  0.72339047  0.18807841    -0.02820
C633        C  0.95285638  0.71741340  0.20793102     0.07110
C634        C  0.92861802  0.74339551  0.21156326    -0.03020
Br635      Br  0.88677866  0.73565685  0.23522288    -0.01570
Br636      Br  0.90616246  0.81382816  0.20986235    -0.01640
Br637      Br  0.01084298  0.68622510  0.17539267    -0.01600
Br638      Br  0.03233994  0.76756096  0.15735317    -0.01580
C639        C  0.03847957  0.82774068  0.40545794    -0.02710
C640        C  0.05561512  0.79666811  0.40809803     0.06970
C641        C  0.07621421  0.78435727  0.38090896    -0.02820
C642        C  0.07649982  0.80164459  0.35034695    -0.02820
C643        C  0.05777236  0.83114377  0.34768197     0.07110
C644        C  0.04221815  0.84666571  0.37612307    -0.03020
Br645      Br  0.02321723  0.89203335  0.37638560    -0.01570
Br646      Br  0.00894156  0.84453516  0.44136249    -0.01640
Br647      Br  0.10448245  0.78693225  0.31240189    -0.01600
Br648      Br  0.10714352  0.74663873  0.38301066    -0.01580
C649        C  0.12975763  0.94713817  0.17598153    -0.02710
C650        C  0.15180723  0.93116040  0.15230825     0.06970
C651        C  0.13622609  0.90211195  0.13666438    -0.02820
C652        C  0.10343229  0.88838701  0.14730409    -0.02820
C653        C  0.08137754  0.90554804  0.17084333     0.07110
C654        C  0.09519240  0.93710570  0.18217528    -0.03020
Br655      Br  0.06591811  0.96989422  0.20227316    -0.01570
Br656      Br  0.14867158  0.98100891  0.20400748    -0.01640
Br657      Br  0.08694439  0.84756934  0.12591973    -0.01600
Br658      Br  0.15969115  0.88155627  0.09926242    -0.01580
C659        C  0.11402009  0.06995850  0.16831346    -0.02710
C660        C  0.14490208  0.07068979  0.18528162     0.06970
C661        C  0.15356752  0.09687270  0.20835126    -0.02820
C662        C  0.13009569  0.12156617  0.21556585    -0.02820
C663        C  0.10030888  0.12107948  0.19716625     0.07110
C664        C  0.09441789  0.09837649  0.17042915    -0.03020
Br665      Br  0.05730282  0.10395189  0.13928256    -0.01570
Br666      Br  0.09942984  0.03304754  0.13878870    -0.01640
Br667      Br  0.13838879  0.15503406  0.25046621    -0.01600
Br668      Br  0.19824676  0.10098167  0.22732025    -0.01580
C669        C  0.18445008  0.88022122  0.54757464    -0.02710
C670        C  0.17267348  0.90356934  0.57291882     0.06970
C671        C  0.14789022  0.88824880  0.59460626    -0.02820
C672        C  0.13589980  0.85288503  0.59072323    -0.02820
C673        C  0.14996804  0.82884844  0.56674439     0.07110
C674        C  0.17546592  0.84405954  0.54588641    -0.03020
Br675      Br  0.19822989  0.81535307  0.51379599    -0.01570
Br676      Br  0.20895208  0.90044339  0.51085416    -0.01640
Br677      Br  0.10001168  0.83717904  0.61988167    -0.01600
Br678      Br  0.12900594  0.91672955  0.62905588    -0.01580
C679        C  0.29350032  0.89938383  0.51372335    -0.02710
C680        C  0.31001557  0.90495987  0.54490688     0.06970
C681        C  0.31720712  0.87659900  0.56555076    -0.02820
C682        C  0.29236708  0.85178994  0.56533191    -0.02820
C683        C  0.28521495  0.84077836  0.53266298     0.07110
C684        C  0.28187554  0.86600193  0.50695726    -0.03020
Br685      Br  0.26671929  0.85284345  0.46265169    -0.01570
Br686      Br  0.28386941  0.93687440  0.48342903    -0.01640
Br687      Br  0.28179487  0.82449472  0.60492747    -0.01600
Br688      Br  0.34934929  0.87876591  0.60142958    -0.01580
C689        C  0.30595600  0.88439094  0.38402740    -0.02710
C690        C  0.31419900  0.91838610  0.39643177     0.06970
C691        C  0.33996523  0.91746350  0.42119493    -0.02820
C692        C  0.35346712  0.88550136  0.43539627    -0.02820
C693        C  0.34438996  0.85109722  0.42360175     0.07110
C694        C  0.32188015  0.85271739  0.39559518    -0.03020
Br695      Br  0.31427747  0.81147393  0.37079426    -0.01570
Br696      Br  0.27088998  0.87956829  0.35080636    -0.01640
Br697      Br  0.38389618  0.89148588  0.47305989    -0.01600
Br698      Br  0.35667425  0.96123515  0.43582082    -0.01580
C699        C  0.09830870  0.11550087  0.32744614    -0.02710
C700        C  0.07980452  0.10071702  0.29956251     0.06970
C701        C  0.09945597  0.07492493  0.28265689    -0.02820
C702        C  0.13422464  0.06620047  0.29199137    -0.02820
C703        C  0.15174110  0.07957574  0.32064964     0.07110
C704        C  0.13204541  0.10484161  0.33784453    -0.03020
Br705      Br  0.15279403  0.12678778  0.37594046    -0.01570
Br706      Br  0.07643924  0.14986694  0.35420958    -0.01640
Br707      Br  0.15920446  0.03435996  0.26617356    -0.01600
Br708      Br  0.07806185  0.04855006  0.24815875    -0.01580
C709        C  0.29232926  0.95396659  0.25161493    -0.02710
C710        C  0.29646783  0.97837040  0.27690999     0.06970
C711        C  0.30555982  0.01187750  0.26728684    -0.02820
C712        C  0.29571145  0.02397636  0.23531735    -0.02820
C713        C  0.28074466  0.00088166  0.21267516     0.07110
C714        C  0.28296145  0.96516142  0.21913792    -0.03020
Br715      Br  0.27056345  0.93139108  0.18588349    -0.01570
Br716      Br  0.29432788  0.90615743  0.26333666    -0.01640
Br717      Br  0.30205684  0.07147092  0.22301196    -0.01600
Br718      Br  0.32289855  0.04253024  0.30108272    -0.01580
C719        C  0.28452274  0.06534467  0.45706002    -0.02710
C720        C  0.25176335  0.07313576  0.44673215     0.06970
C721        C  0.22869357  0.08437632  0.47106412    -0.02820
C722        C  0.23324787  0.07431853  0.50477568    -0.02820
C723        C  0.26122100  0.05404146  0.51264275     0.07110
C724        C  0.28860679  0.05228188  0.48982406    -0.03020
Br725      Br  0.32885015  0.02693250  0.50005815    -0.01570
Br726      Br  0.32123645  0.06449685  0.42480955    -0.01640
Br727      Br  0.20059754  0.08604804  0.53903705    -0.01600
Br728      Br  0.18846618  0.10689839  0.45686376    -0.01580
C729        C  0.14216370  0.92509617  0.45818008    -0.02710
C730        C  0.15139585  0.92450891  0.42380183     0.06970
C731        C  0.13983376  0.89765103  0.40360100    -0.02820
C732        C  0.13978887  0.86605593  0.41838526    -0.02820
C733        C  0.13291498  0.86409572  0.45361120     0.07110
C734        C  0.12912783  0.89485320  0.47245082    -0.03020
Br735      Br  0.10543841  0.89725377  0.51520564    -0.01570
Br736      Br  0.14730531  0.96596847  0.48478627    -0.01640
Br737      Br  0.15497826  0.82876384  0.38978448    -0.01600
Br738      Br  0.13265775  0.90095423  0.35541127    -0.01580
C739        C  0.09176698  0.95101021  0.29427562    -0.02710
C740        C  0.10047745  0.92604202  0.26998542     0.06970
C741        C  0.13359957  0.91997673  0.26027422    -0.02820
C742        C  0.15846866  0.93952433  0.27487094    -0.02820
C743        C  0.14952766  0.96311512  0.30085335     0.07110
C744        C  0.11605492  0.97193248  0.30714494    -0.03020
Br745      Br  0.10224561  0.00759640  0.33873665    -0.01570
Br746      Br  0.05016847  0.94998493  0.31976928    -0.01640
Br747      Br  0.20403549  0.93138949  0.25912774    -0.01600
Br748      Br  0.14583070  0.88237650  0.23050013    -0.01580
C749        C  0.17691258  0.97131367  0.99593416    -0.02710
C750        C  0.19960832  0.96256127  0.02159651     0.06970
C751        C  0.22395432  0.93732153  0.01449679    -0.02820
C752        C  0.23473452  0.93387644  0.98101686    -0.02820
C753        C  0.21875477  0.95318965  0.95592783     0.07110
C754        C  0.18705592  0.96737733  0.96218812    -0.03020
Br755      Br  0.15942421  0.98381726  0.92563600    -0.01570
Br756      Br  0.13167961  0.98335337  0.00685855    -0.01640
Br757      Br  0.27300070  0.90624372  0.96966615    -0.01600
Br758      Br  0.24357656  0.90915051  0.04971842    -0.01580
C759        C  0.17456425  0.97560644  0.72016919    -0.02710
C760        C  0.20310701  0.98603110  0.70132684     0.06970
C761        C  0.23368244  0.98979874  0.71741510    -0.02820
C762        C  0.23801777  0.97475963  0.74845477    -0.02820
C763        C  0.21014952  0.97028281  0.76989322     0.07110
C764        C  0.17774020  0.97066037  0.75577882    -0.03020
Br765      Br  0.13903621  0.96567662  0.78465285    -0.01570
Br766      Br  0.13165582  0.97358729  0.69860561    -0.01640
Br767      Br  0.28293982  0.96605005  0.76230500    -0.01600
Br768      Br  0.26872459  0.01884459  0.69964008    -0.01580
C769        C  0.85254459  0.57167115  0.13519772    -0.02710
C770        C  0.81916176  0.57965100  0.14792262     0.06970
C771        C  0.82003142  0.60585296  0.17242813    -0.02820
C772        C  0.85103400  0.61696924  0.18818299    -0.02820
C773        C  0.88340327  0.60142981  0.18225663     0.07110
C774        C  0.88336474  0.57976247  0.15355736    -0.03020
Br775      Br  0.92623979  0.56579025  0.13655679    -0.01570
Br776      Br  0.85777722  0.55991586  0.08795611    -0.01640
Br777      Br  0.84988035  0.65925968  0.21233433    -0.01600
Br778      Br  0.78010689  0.63314787  0.17641916    -0.01580
C779        C  0.87422535  0.46796056  0.14560708    -0.02710
C780        C  0.84170882  0.45468889  0.14707054     0.06970
C781        C  0.83239012  0.43000669  0.17174928    -0.02820
C782        C  0.85378549  0.42368351  0.19857362    -0.02820
C783        C  0.88705748  0.43618192  0.19639121     0.07110
C784        C  0.89632692  0.46083367  0.17180142    -0.03020
Br785      Br  0.94015238  0.48182812  0.17077272    -0.01570
Br786      Br  0.89181300  0.48387106  0.10264930    -0.01640
Br787      Br  0.83895061  0.39275562  0.23542098    -0.01600
Br788      Br  0.79367025  0.39996464  0.16706919    -0.01580
C789        C  0.80230033  0.62824983  0.60200154    -0.02710
C790        C  0.81300374  0.59451408  0.59001818     0.06970
C791        C  0.84030684  0.59653874  0.56704870    -0.02820
C792        C  0.85490558  0.62899763  0.55601824    -0.02820
C793        C  0.84022674  0.66237529  0.56277016     0.07110
C794        C  0.81487859  0.66068815  0.58806421    -0.03020
Br795      Br  0.79796583  0.70347712  0.60441443    -0.01570
Br796      Br  0.76887978  0.63259413  0.63744216    -0.01640
Br797      Br  0.89939995  0.62619342  0.53709078    -0.01600
Br798      Br  0.85994771  0.55407084  0.55291454    -0.01580
C799        C  0.69867585  0.64907921  0.54245270    -0.02710
C800        C  0.66391762  0.63989173  0.53840023     0.06970
C801        C  0.65653021  0.60970521  0.51960481    -0.02820
C802        C  0.68302245  0.58691005  0.51297812    -0.02820
C803        C  0.71374359  0.59282326  0.52929484     0.07110
C804        C  0.72296669  0.62646536  0.53077265    -0.03020
Br805      Br  0.76925131  0.63724155  0.52685199    -0.01570
Br806      Br  0.71603962  0.68789831  0.56671087    -0.01640
Br807      Br  0.67602558  0.54408337  0.49063624    -0.01600
Br808      Br  0.61215024  0.59764173  0.50435170    -0.01580
C809        C  0.65615330  0.60444846  0.40242722    -0.02710
C810        C  0.68840384  0.59132533  0.41052975     0.06970
C811        C  0.70785695  0.61376914  0.43135462    -0.02820
C812        C  0.69631573  0.64729072  0.44237842    -0.02820
C813        C  0.66386086  0.65991828  0.43545841     0.07110
C814        C  0.64380240  0.63675031  0.41569654    -0.03020
Br815      Br  0.59817199  0.64914157  0.40683141    -0.01570
Br816      Br  0.62838563  0.57735176  0.37306518    -0.01640
Br817      Br  0.72397026  0.67787495  0.46757364    -0.01600
Br818      Br  0.74939313  0.59590002  0.44762296    -0.01580
C819        C  0.84525068  0.39091705  0.34931074    -0.02710
C820        C  0.84301054  0.42601381  0.35796940     0.06970
C821        C  0.87489441  0.44385200  0.35627036    -0.02820
C822        C  0.90532379  0.42893713  0.34279763    -0.02820
C823        C  0.90714744  0.39452639  0.33187652     0.07110
C824        C  0.87631281  0.37562146  0.33721746    -0.03020
Br825      Br  0.87567791  0.32780681  0.32693472    -0.01570
Br826      Br  0.80496822  0.36392822  0.35256393    -0.01640
Br827      Br  0.94474393  0.45697447  0.33605248    -0.01600
Br828      Br  0.87760118  0.49074644  0.37104680    -0.01580
C829        C  0.72576832  0.45020308  0.27331389    -0.02710
C830        C  0.69905614  0.46843340  0.28747661     0.06970
C831        C  0.67574931  0.48354365  0.26524502    -0.02820
C832        C  0.68237727  0.48481214  0.22985884    -0.02820
C833        C  0.71459419  0.47510319  0.21750714     0.07110
C834        C  0.73592079  0.45809371  0.24018747    -0.03020
Br835      Br  0.78203402  0.45550610  0.23088776    -0.01570
Br836      Br  0.75168749  0.41826029  0.29983938    -0.01640
Br837      Br  0.64721139  0.50026012  0.19993061    -0.01600
Br838      Br  0.63551203  0.50309838  0.28394584    -0.01580
C839        C  0.80042811  0.47643303  0.48790183    -0.02710
C840        C  0.78033837  0.47327012  0.45923393     0.06970
C841        C  0.74746403  0.45948115  0.46311510    -0.02820
C842        C  0.73119401  0.46192595  0.49447365    -0.02820
C843        C  0.74967992  0.47247794  0.52247025     0.07110
C844        C  0.78533455  0.47344722  0.52007504    -0.03020
Br845      Br  0.81398511  0.46872986  0.55914248    -0.01570
Br846      Br  0.84724299  0.48747915  0.48275296    -0.01640
Br847      Br  0.68452353  0.44952966  0.49963373    -0.01600
Br848      Br  0.72366595  0.43932170  0.42580498    -0.01580
C849        C  0.82512028  0.61939160  0.40042808    -0.02710
C850        C  0.80192463  0.61841276  0.37384807     0.06970
C851        C  0.77765000  0.64427220  0.37013265    -0.02820
C852        C  0.77537674  0.66954913  0.39496114    -0.02820
C853        C  0.79447071  0.66620659  0.42518243     0.07110
C854        C  0.81755136  0.63895466  0.42851847    -0.03020
Br855      Br  0.83562200  0.62362721  0.47151545    -0.01570
Br856      Br  0.86324965  0.58826961  0.40120965    -0.01640
Br857      Br  0.74504113  0.70749264  0.38744373    -0.01600
Br858      Br  0.74636553  0.64493013  0.33266723    -0.01580
C859        C  0.81151351  0.56879142  0.25407589    -0.02710
C860        C  0.81339215  0.53298736  0.25682470     0.06970
C861        C  0.84557848  0.51810470  0.25460385    -0.02820
C862        C  0.87287768  0.53826878  0.26325773    -0.02820
C863        C  0.86642655  0.56916197  0.28051864     0.07110
C864        C  0.83638388  0.58688318  0.27218315    -0.03020
Br865      Br  0.82631624  0.63179479  0.28979849    -0.01570
Br866      Br  0.76762075  0.58839960  0.24832980    -0.01640
Br867      Br  0.91734313  0.52121104  0.25339772    -0.01600
Br868      Br  0.85270696  0.47144984  0.26808861    -0.01580
C869        C  0.73068271  0.56001055  0.95515238    -0.02710
C870        C  0.70002938  0.54301022  0.94853155     0.06970
C871        C  0.67437527  0.54441330  0.97330840    -0.02820
C872        C  0.68257306  0.55411553  0.00687351    -0.02820
C873        C  0.71617689  0.56143933  0.01504210     0.07110
C874        C  0.73877014  0.56908502  0.98852390    -0.03020
Br875      Br  0.78235626  0.58785785  0.99896527    -0.01570
Br876      Br  0.76267248  0.56889004  0.91904664    -0.01640
Br877      Br  0.64876879  0.55620346  0.04179834    -0.01600
Br878      Br  0.62897605  0.53285446  0.96200887    -0.01580
C879        C  0.80103753  0.54465198  0.77264675    -0.02710
C880        C  0.80529123  0.51043526  0.78282005     0.06970
C881        C  0.80936934  0.48636577  0.75734335    -0.02820
C882        C  0.79047425  0.49069219  0.72795821    -0.02820
C883        C  0.77597886  0.52350720  0.72083646     0.07110
C884        C  0.78444556  0.55139706  0.74192121    -0.03020
Br885      Br  0.77493501  0.59805856  0.72924744    -0.01570
Br886      Br  0.81234731  0.58053470  0.80385503    -0.01640
Br887      Br  0.78360943  0.45015216  0.70048506    -0.01600
Br888      Br  0.83224976  0.44413267  0.76716380    -0.01580
C889        C  0.13439509  0.12258593  0.89015861    -0.02710
C890        C  0.15101298  0.14960858  0.90844579     0.06970
C891        C  0.18593968  0.14430719  0.91148349    -0.02820
C892        C  0.20202659  0.11247833  0.90266274    -0.02820
C893        C  0.18634275  0.08564033  0.88380570     0.07110
C894        C  0.15183501  0.09251470  0.87664146    -0.03020
Br895      Br  0.12779028  0.05954888  0.85014768    -0.01570
Br896      Br  0.08664636  0.12605830  0.88547007    -0.01640
Br897      Br  0.24280702  0.10203439  0.92512181    -0.01600
Br898      Br  0.21150067  0.18137272  0.93028273    -0.01580
C899        C  0.05756918  0.30849343  0.08830697    -0.02710
C900        C  0.08693341  0.28851531  0.09234492     0.06970
C901        C  0.10077346  0.29151389  0.12642032    -0.02820
C902        C  0.08331109  0.30765625  0.15517796    -0.02820
C903        C  0.05055518  0.32168870  0.15248838     0.07110
C904        C  0.04037607  0.32489668  0.11681082    -0.03020
Br905      Br  0.00601105  0.35738685  0.10398553    -0.01570
Br906      Br  0.04323905  0.31708676  0.04215259    -0.01640
Br907      Br  0.10659001  0.31657578  0.19701806    -0.01600
Br908      Br  0.14649867  0.27768366  0.13350469    -0.01580
C909        C  0.17660837  0.09128038  0.99272232    -0.02710
C910        C  0.19316908  0.12363326  0.99473651     0.06970
C911        C  0.22671680  0.12075833  0.00504226    -0.02820
C912        C  0.23404545  0.09360771  0.02693501    -0.02820
C913        C  0.20608976  0.07819611  0.04296182     0.07110
C914        C  0.17686947  0.07336772  0.02327662    -0.03020
Br915      Br  0.13313261  0.06092028  0.04186881    -0.01570
Br916      Br  0.14354523  0.07830632  0.96011015    -0.01640
Br917      Br  0.26887700  0.06413495  0.01162265    -0.01600
Br918      Br  0.25910072  0.15670737  0.99942169    -0.01580
C919        C  0.07670416  0.21923339  0.15437141    -0.02710
C920        C  0.04171245  0.22002944  0.15166227     0.06970
C921        C  0.02658913  0.21455123  0.11992935    -0.02820
C922        C  0.04562808  0.20216499  0.09329734    -0.02820
C923        C  0.07848102  0.19015745  0.09998279     0.07110
C924        C  0.09449375  0.19971508  0.13070873    -0.03020
Br925      Br  0.13883322  0.18385666  0.14304968    -0.01570
Br926      Br  0.09702789  0.23064564  0.19740060    -0.01640
Br927      Br  0.02287869  0.19887455  0.05002190    -0.01600
Br928      Br  0.97947817  0.20380739  0.11724890    -0.01580
C929        C  0.30078480  0.16336148  0.07950053    -0.02710
C930        C  0.32940741  0.16652106  0.05799376     0.06970
C931        C  0.34534000  0.13334282  0.05269711    -0.02820
C932        C  0.33012946  0.10035983  0.06123259    -0.02820
C933        C  0.30207692  0.09718782  0.08319579     0.07110
C934        C  0.29051307  0.13065682  0.09497536    -0.03020
Br935      Br  0.26623027  0.13465718  0.13747392    -0.01570
Br936      Br  0.27780362  0.20484968  0.09128115    -0.01640
Br937      Br  0.35163504  0.05842797  0.04763782    -0.01600
Br938      Br  0.39244324  0.13056265  0.04358434    -0.01580
C939        C  0.24382367  0.29850254  0.95234312    -0.02710
C940        C  0.26520989  0.29936546  0.98065927     0.06970
C941        C  0.25202279  0.30780013  0.01301745    -0.03300
C942        C  0.21767723  0.30383275  0.01827938    -0.02820
C943        C  0.19835533  0.29027447  0.99184022     0.07110
C944        C  0.20953504  0.29437333  0.95799340    -0.03020
Br945      Br  0.17927212  0.29183935  0.91990327    -0.01570
Br946      Br  0.26149080  0.30117034  0.90660330    -0.01640
Br947      Br  0.19758933  0.31339967  0.06192852    -0.01600
Br948      Br  0.27973572  0.32057772  0.05118093    -0.01580
C949        C  0.34501624  0.10043907  0.92001649    -0.02710
C950        C  0.31971926  0.09913355  0.89589713     0.06970
C951        C  0.30616013  0.12867641  0.88029521    -0.02820
C952        C  0.31138982  0.15948670  0.89599100    -0.02820
C953        C  0.33362063  0.16009878  0.92334518     0.07110
C954        C  0.35344444  0.13184624  0.93246963    -0.03020
Br955      Br  0.39313453  0.13577558  0.95972541    -0.01570
Br956      Br  0.36817871  0.05974652  0.93546818    -0.01640
Br957      Br  0.28664084  0.19962280  0.88135401    -0.01600
Br958      Br  0.27810858  0.12782472  0.84014871    -0.01580
C959        C  0.62529096  0.39476398  0.04331401    -0.02710
C960        C  0.63641556  0.36041979  0.05295657     0.06970
C961        C  0.65630746  0.36027771  0.08276307    -0.02820
C962        C  0.66503269  0.39153241  0.10086246    -0.02820
C963        C  0.65970738  0.42596829  0.08732570     0.07110
C964        C  0.63774264  0.42612892  0.05903971    -0.03020
Br965      Br  0.62370173  0.46992310  0.04214332    -0.01570
Br966      Br  0.59425584  0.40127146  0.00617003    -0.01640
Br967      Br  0.67990088  0.38521857  0.14737011    -0.01600
Br968      Br  0.66998751  0.31636997  0.10031594    -0.01580
C969        C  0.50180673  0.28971439  0.04363173    -0.02710
C970        C  0.52166484  0.26421499  0.02885659     0.06970
C971        C  0.51363036  0.22929656  0.03346463    -0.02820
C972        C  0.48140706  0.22099427  0.04392064    -0.02820
C973        C  0.45841978  0.24756599  0.04801185     0.07110
C974        C  0.46982436  0.28079599  0.05483041    -0.03020
Br975      Br  0.44012810  0.31500865  0.07282628    -0.01570
Br976      Br  0.51775966  0.33616869  0.04752644    -0.01640
Br977      Br  0.46653441  0.17419141  0.04397054    -0.01600
Br978      Br  0.54408317  0.19279457  0.02178383    -0.01580
C979        C  0.70270110  0.34201553  0.92408933    -0.02710
C980        C  0.69067223  0.35236388  0.95620964     0.06970
C981        C  0.68764708  0.38617391  0.96381055    -0.02820
C982        C  0.67968150  0.40813634  0.93777954    -0.02820
C983        C  0.68690400  0.39766165  0.90364921     0.07110
C984        C  0.70273583  0.36576341  0.89775056    -0.03020
Br985      Br  0.72495227  0.35295697  0.85566578    -0.01570
Br986      Br  0.70919183  0.29403636  0.91292950    -0.01640
Br987      Br  0.65909069  0.45016373  0.95243722    -0.01600
Br988      Br  0.69599484  0.40073941  0.00910405    -0.01580
C989        C  0.79085596  0.38310748  0.92136520    -0.02710
C990        C  0.80514221  0.40700349  0.89807816     0.06970
C991        C  0.83484032  0.39381526  0.88249021    -0.02820
C992        C  0.84862403  0.35978914  0.89059937    -0.02820
C993        C  0.83215945  0.33510552  0.91285147     0.07110
C994        C  0.80217839  0.34826245  0.92721647    -0.03020
Br995      Br  0.77652564  0.31832046  0.95593726    -0.01570
Br996      Br  0.75859031  0.40255642  0.94960840    -0.01640
Br997      Br  0.89002212  0.34652366  0.86934083    -0.01600
Br998      Br  0.85791339  0.42363404  0.85129728    -0.01580
C999        C  0.92301955  0.14272542  0.10882801    -0.02710
C1000       C  0.91783559  0.15751297  0.14225302     0.06970
C1001       C  0.89640282  0.18629370  0.14177196    -0.02820
C1002       C  0.88178718  0.19983143  0.11051111    -0.02820
C1003       C  0.88963281  0.18705128  0.07655687     0.07110
C1004       C  0.91020455  0.15747811  0.07734227    -0.03020
Br1005     Br  0.91992705  0.13566406  0.03480567    -0.01570
Br1006     Br  0.94885806  0.10122732  0.10492038    -0.01640
Br1007     Br  0.85010558  0.23645467  0.11665621    -0.01600
Br1008     Br  0.88860513  0.20858419  0.18456883    -0.01580
C1009       C  0.96343981  0.19841827  0.95110623    -0.02710
C1010       C  0.96091076  0.23447609  0.94888121     0.06970
C1011       C  0.98915266  0.25415897  0.94033270    -0.02820
C1012       C  0.02054489  0.23867134  0.94069346    -0.02820
C1013       C  0.02349205  0.20490882  0.95351681     0.07110
C1014       C  0.99513749  0.18361101  0.95510412    -0.03020
Br1015     Br  0.99916800  0.13569556  0.96630605    -0.01570
Br1016     Br  0.92425629  0.16944344  0.95027255    -0.01640
Br1017     Br  0.05984947  0.26474519  0.92744261    -0.01600
Br1018     Br  0.98485914  0.30219469  0.92935098    -0.01580
C1019       C  0.74560765  0.20205852  0.97553577    -0.02710
C1020       C  0.75967997  0.21781236  0.00445516     0.06970
C1021       C  0.74223332  0.21596469  0.03581458    -0.02820
C1022       C  0.70853035  0.20533838  0.03638644    -0.02820
C1023       C  0.69251290  0.19782840  0.00558060     0.07110
C1024       C  0.71255413  0.18969418  0.97718807    -0.03020
Br1025     Br  0.69171317  0.16945298  0.93786579    -0.01570
Br1026     Br  0.76920846  0.20118113  0.93249724    -0.01640
Br1027     Br  0.68339754  0.20450873  0.07832854    -0.01600
Br1028     Br  0.76412424  0.22748405  0.07783638    -0.01580
C1029       C  0.82220687  0.39956511  0.00077887    -0.02710
C1030       C  0.81273049  0.36697171  0.01328490     0.06970
C1031       C  0.78302148  0.36207659  0.03212119    -0.02820
C1032       C  0.76827262  0.38997819  0.04608324    -0.02820
C1033       C  0.77607771  0.42244684  0.03264689     0.07110
C1034       C  0.80181621  0.42711381  0.00839320    -0.03020
Br1035     Br  0.80938988  0.47110811  0.98632144    -0.01570
Br1036     Br  0.86311596  0.40801823  0.97534627    -0.01640
Br1037     Br  0.74603455  0.38209048  0.08936873    -0.01600
Br1038     Br  0.76274539  0.31824327  0.04274166    -0.01580
C1039       C  0.93946063  0.29376795  0.10284424    -0.02710
C1040       C  0.91405686  0.31359445  0.08837880     0.06970
C1041       C  0.88802214  0.32660596  0.10858656    -0.02820
C1042       C  0.88392529  0.31364280  0.14122882    -0.02820
C1043       C  0.91198988  0.29984099  0.15672191     0.07110
C1044       C  0.93848233  0.28691694  0.13768426    -0.03020
Br1045     Br  0.97671052  0.27083446  0.16240478    -0.01570
Br1046     Br  0.97370429  0.27605712  0.07368009    -0.01640
Br1047     Br  0.84540560  0.32427570  0.16861928    -0.01600
Br1048     Br  0.85909680  0.36230865  0.09237182    -0.01580
C1049       C  0.58744267  0.58160114  0.81606231    -0.02710
C1050       C  0.58880769  0.60300399  0.78651677     0.06970
C1051       C  0.62286900  0.61467444  0.77963688    -0.02820
C1052       C  0.65254982  0.60357597  0.79889214    -0.02820
C1053       C  0.65136911  0.57882312  0.82578631     0.07110
C1054       C  0.61712687  0.56970397  0.83447834    -0.03020
Br1055     Br  0.60980373  0.53799264  0.87132426    -0.01570
Br1056     Br  0.54432478  0.56608588  0.83050467    -0.01640
Br1057     Br  0.69627916  0.62146699  0.78753931    -0.01600
Br1058     Br  0.63037036  0.64606056  0.74240381    -0.01580
C1059       C  0.41745890  0.62458072  0.60397955    -0.02710
C1060       C  0.41415025  0.63994589  0.63747587     0.06970
C1061       C  0.39382532  0.66972522  0.63608933    -0.02820
C1062       C  0.38059529  0.68347274  0.60418326    -0.02820
C1063       C  0.39412445  0.67542165  0.57069255     0.07110
C1064       C  0.41034392  0.64293949  0.57190218    -0.03020
Br1065     Br  0.41658016  0.62065433  0.52885742    -0.01570
Br1066     Br  0.42658322  0.57625645  0.60124493    -0.01640
Br1067     Br  0.33485627  0.69905645  0.60745388    -0.01600
Br1068     Br  0.37721483  0.68665683  0.67875403    -0.01580
C1069       C  0.60466918  0.58768614  0.63520053    -0.02710
C1070       C  0.58773558  0.56615507  0.65904315     0.06970
C1071       C  0.60262403  0.55955833  0.69105058    -0.02820
C1072       C  0.63567066  0.57121793  0.69630970    -0.02820
C1073       C  0.65067990  0.58962578  0.67042045     0.07110
C1074       C  0.63051614  0.60705164  0.64840015    -0.03020
Br1075     Br  0.64435395  0.65107334  0.63295463    -0.01570
Br1076     Br  0.58594792  0.59928526  0.59165219    -0.01640
Br1077     Br  0.66514795  0.55816608  0.73230302    -0.01600
Br1078     Br  0.57679016  0.53788990  0.72653913    -0.01580
C1079       C  0.48220230  0.69737491  0.61738451    -0.02710
C1080       C  0.48281969  0.66263972  0.60930327     0.06970
C1081       C  0.48894102  0.65307414  0.57526017    -0.02820
C1082       C  0.50052700  0.67866318  0.55351816    -0.02820
C1083       C  0.51812337  0.70529374  0.56973832     0.07110
C1084       C  0.50864342  0.71530102  0.60271230    -0.03020
Br1085     Br  0.53858964  0.73979960  0.63228569    -0.01570
Br1086     Br  0.46403775  0.71056872  0.66063223    -0.01640
Br1087     Br  0.50438957  0.66977234  0.50535955    -0.01600
Br1088     Br  0.49713817  0.60645565  0.56152254    -0.01580
C1089       C  0.59324063  0.43867916  0.67585317    -0.02710
C1090       C  0.58502120  0.40386844  0.67240419     0.06970
C1091       C  0.61187208  0.38489263  0.65588229    -0.02820
C1092       C  0.64431541  0.40011850  0.64557313    -0.02820
C1093       C  0.65386567  0.43435212  0.65386595     0.07110
C1094       C  0.62678998  0.45191378  0.66945909    -0.03020
Br1095     Br  0.63935276  0.49281910  0.68808569    -0.01570
Br1096     Br  0.55656465  0.46875807  0.68405926    -0.01640
Br1097     Br  0.67607353  0.37398457  0.61989424    -0.01600
Br1098     Br  0.60326817  0.33805203  0.64359865    -0.01580
C1099       C  0.40379441  0.35425444  0.85686900    -0.02710
C1100       C  0.43889310  0.35065140  0.85243327     0.06970
C1101       C  0.45640690  0.34430707  0.88427118    -0.02820
C1102       C  0.43975943  0.33597363  0.91632591    -0.02820
C1103       C  0.40445543  0.33726734  0.92036469     0.07110
C1104       C  0.38728735  0.34894103  0.88976774    -0.03020
Br1105     Br  0.34022039  0.35990030  0.89211902    -0.01570
Br1106     Br  0.37795971  0.36580645  0.81719514    -0.01640
Br1107     Br  0.46588857  0.32240351  0.95521167    -0.01600
Br1108     Br  0.50431037  0.35147782  0.88643654    -0.01580
C1109       C  0.44623645  0.46164116  0.76095598    -0.02710
C1110       C  0.46778539  0.45848020  0.78945032     0.06970
C1111       C  0.47322978  0.48746001  0.80973954    -0.02820
C1112       C  0.46343074  0.51991763  0.79722582    -0.02820
C1113       C  0.45268828  0.52302076  0.76322550     0.07110
C1114       C  0.43974045  0.49402304  0.74717648    -0.03020
Br1115     Br  0.41502693  0.49904920  0.70526758    -0.01570
Br1116     Br  0.42902655  0.42206366  0.73775988    -0.01640
Br1117     Br  0.46104487  0.55887931  0.82657882    -0.01600
Br1118     Br  0.49623873  0.48304549  0.85234982    -0.01580
C1119       C  0.60390245  0.43916594  0.76196270    -0.02710
C1120       C  0.61024022  0.40354467  0.75924971     0.06970
C1121       C  0.64135781  0.39308236  0.74544105    -0.02820
C1122       C  0.66772651  0.41698800  0.74377922    -0.02820
C1123       C  0.66275505  0.44944302  0.75772636     0.07110
C1124       C  0.63021785  0.46205543  0.76054241    -0.03020
Br1125     Br  0.62333379  0.50595629  0.78139329    -0.01570
Br1126     Br  0.56170717  0.45934294  0.77354477    -0.01640
Br1127     Br  0.71204580  0.40345896  0.73060766    -0.01600
Br1128     Br  0.64962603  0.34694152  0.73113561    -0.01580
C1129       C  0.54535841  0.25690179  0.84271333    -0.02710
C1130       C  0.56214871  0.26499143  0.81278836     0.06970
C1131       C  0.59657587  0.27122864  0.81415073    -0.02820
C1132       C  0.60817026  0.28940436  0.84235880    -0.02820
C1133       C  0.58707649  0.29168596  0.87136338     0.07110
C1134       C  0.55685736  0.27195533  0.87264328    -0.03020
Br1135     Br  0.53032393  0.26533135  0.91328253    -0.01570
Br1136     Br  0.50057279  0.23943017  0.83875261    -0.01640
Br1137     Br  0.64841664  0.31621009  0.83751568    -0.01600
Br1138     Br  0.62155847  0.27078892  0.77218456    -0.01580
C1139       C  0.59762157  0.19782332  0.85757598    -0.02710
C1140       C  0.58633886  0.19545915  0.89282353     0.06970
C1141       C  0.56110400  0.17018590  0.89729931    -0.02820
C1142       C  0.54444632  0.15464835  0.86843438    -0.02820
C1143       C  0.54741798  0.16738564  0.83404241     0.07110
C1144       C  0.57778242  0.18549990  0.82894715    -0.03020
Br1145     Br  0.59472037  0.18730526  0.78314770    -0.01570
Br1146     Br  0.64361569  0.21061478  0.84838537    -0.01640
Br1147     Br  0.53189005  0.10721743  0.87284060    -0.01600
Br1148     Br  0.55576576  0.15048365  0.94185181    -0.01580
C1149       C  0.34926659  0.11371714  0.68593979    -0.02710
C1150       C  0.38251593  0.11163046  0.67107384     0.06970
C1151       C  0.38227676  0.09792634  0.63769211    -0.02820
C1152       C  0.35196532  0.08456406  0.62181093    -0.02820
C1153       C  0.31912558  0.08427571  0.63765358     0.07110
C1154       C  0.31886493  0.10118018  0.66956326    -0.03020
Br1155     Br  0.27598157  0.10743842  0.69105245    -0.01570
Br1156     Br  0.34440065  0.13298573  0.73059870    -0.01640
Br1157     Br  0.35630883  0.06499520  0.57739645    -0.01600
Br1158     Br  0.42444284  0.09586685  0.61401657    -0.01580
C1159       C  0.41162966  0.25149289  0.71904076    -0.02710
C1160       C  0.43209370  0.22330138  0.71197884     0.06970
C1161       C  0.45917990  0.22769981  0.68859945    -0.02820
C1162       C  0.46933722  0.26066629  0.67877301    -0.02820
C1163       C  0.45512383  0.28879683  0.69513983     0.07110
C1164       C  0.42304287  0.28465648  0.71029686    -0.03020
Br1165     Br  0.39573982  0.32374574  0.72086177    -0.01570
Br1166     Br  0.37033266  0.24491753  0.74352584    -0.01640
Br1167     Br  0.50574180  0.26770233  0.64671714    -0.01600
Br1168     Br  0.48663908  0.19013931  0.67380154    -0.01580
C1169       C  0.40309862  0.19531018  0.84751926    -0.02710
C1170       C  0.41951419  0.16424669  0.85596360     0.06970
C1171       C  0.44361207  0.16403564  0.88189706    -0.02820
C1172       C  0.45309473  0.19507356  0.89691698    -0.02820
C1173       C  0.43404205  0.22466900  0.88995109     0.07110
C1174       C  0.41533090  0.22599632  0.86013191    -0.03020
Br1175     Br  0.39870936  0.26886361  0.84293625    -0.01570
Br1176     Br  0.36152491  0.19594406  0.82219058    -0.01640
Br1177     Br  0.48091356  0.19498060  0.93678138    -0.01600
Br1178     Br  0.45637812  0.12128891  0.90250558    -0.01580
C1179       C  0.39049960  0.01429855  0.76072793    -0.02710
C1180       C  0.42091412  0.01730374  0.77715477     0.06970
C1181       C  0.42529512  0.99947495  0.80765417    -0.02820
C1182       C  0.39731557  0.99555059  0.82894691    -0.02820
C1183       C  0.36526953  0.00410447  0.81565464     0.07110
C1184       C  0.36226149  0.01493857  0.78121302    -0.03020
Br1185     Br  0.32581372  0.04351408  0.76525209    -0.01570
Br1186     Br  0.38803486  0.02551343  0.71355196    -0.01640
Br1187     Br  0.40537121  0.98664069  0.87661203    -0.01600
Br1188     Br  0.47015125  0.99128713  0.82354504    -0.01580
C1189       C  0.40055156  0.90287153  0.85355965    -0.02710
C1190       C  0.40670381  0.90509511  0.81783776     0.06970
C1191       C  0.37742984  0.91437206  0.79905886    -0.02820
C1192       C  0.34449854  0.91571654  0.81323150    -0.02820
C1193       C  0.33893025  0.92035792  0.84803888     0.07110
C1194       C  0.36810539  0.91229329  0.86852433    -0.03020
Br1195     Br  0.36379141  0.91086908  0.91734043    -0.01570
Br1196     Br  0.43672103  0.88764772  0.88185271    -0.01640
Br1197     Br  0.30968208  0.89271109  0.78914479    -0.01600
Br1198     Br  0.38219933  0.93260160  0.75449265    -0.01580
C1199       C  0.59413651  0.82328048  0.66567697    -0.02710
C1200       C  0.57728709  0.85498128  0.66452522     0.06970
C1201       C  0.57683441  0.87061680  0.63113077    -0.02820
C1202       C  0.58891012  0.85379173  0.60059496    -0.02820
C1203       C  0.60326467  0.82063057  0.60150771     0.07110
C1204       C  0.60706102  0.80678257  0.63549041    -0.03020
Br1205     Br  0.62923472  0.76342561  0.64171056    -0.01570
Br1206     Br  0.59738274  0.80126597  0.70916711    -0.01640
Br1207     Br  0.58330171  0.87522114  0.55688767    -0.01600
Br1208     Br  0.55730042  0.91546457  0.62682570    -0.01580
C1209       C  0.50253455  0.00247709  0.70135928    -0.02710
C1210       C  0.51808186  0.98064540  0.72508179     0.06970
C1211       C  0.54314374  0.99400461  0.74670728    -0.02820
C1212       C  0.54766388  0.02966168  0.74883448    -0.02820
C1213       C  0.52864759  0.05146241  0.72788415     0.07110
C1214       C  0.51070565  0.03717925  0.70048163    -0.03020
Br1215     Br  0.49585597  0.06431170  0.66202555    -0.01570
Br1216     Br  0.46601170  0.98712724  0.67354266    -0.01640
Br1217     Br  0.58025825  0.04877177  0.77949126    -0.01600
Br1218     Br  0.57138057  0.96403149  0.77313930    -0.01580
C1219       C  0.48427675  0.75121478  0.80025395    -0.02710
C1220       C  0.50985747  0.77587370  0.79670574     0.06970
C1221       C  0.54194132  0.76480764  0.78725547    -0.02820
C1222       C  0.54521148  0.73421147  0.76903504    -0.02820
C1223       C  0.51641575  0.71378294  0.76327119     0.07110
C1224       C  0.48727142  0.72009970  0.78304494    -0.03020
Br1225     Br  0.45150411  0.68671638  0.78752348    -0.01570
Br1226     Br  0.44466696  0.76093349  0.82687622    -0.01640
Br1227     Br  0.58857469  0.72225482  0.75156039    -0.01600
Br1228     Br  0.58049591  0.79213552  0.79897750    -0.01580
C1229       C  0.35296972  0.88494370  0.69482620    -0.02710
C1230       C  0.38513407  0.89206420  0.68209691     0.06970
C1231       C  0.39147786  0.91960718  0.66051944    -0.02820
C1232       C  0.36968334  0.94650904  0.66098023    -0.02820
C1233       C  0.33644297  0.94001114  0.67245012     0.07110
C1234       C  0.32781528  0.90874097  0.68894095    -0.03020
Br1235     Br  0.28216059  0.89596500  0.70053143    -0.01570
Br1236     Br  0.34346298  0.84350585  0.72020403    -0.01640
Br1237     Br  0.38372116  0.98857302  0.63789887    -0.01600
Br1238     Br  0.43011298  0.91909545  0.63047053    -0.01580
C1239       C  0.44165088  0.78020031  0.60227839    -0.02710
C1240       C  0.40696913  0.77894179  0.60790861     0.06970
C1241       C  0.39435013  0.77645167  0.64125768    -0.02820
C1242       C  0.41682832  0.77723977  0.66847789    -0.02820
C1243       C  0.45033498  0.78716510  0.66203883     0.07110
C1244       C  0.46254845  0.78922810  0.62849003    -0.03020
Br1245     Br  0.50332192  0.81390560  0.61652494    -0.01570
Br1246     Br  0.46219256  0.76695992  0.56073245    -0.01640
Br1247     Br  0.40097106  0.76986202  0.71448326    -0.01600
Br1248     Br  0.34689327  0.77618412  0.64994367    -0.01580
loop_ 
_geom_bond_atom_site_label_1 
_geom_bond_atom_site_label_2 
_geom_bond_distance 
_geom_bond_site_symmetry_2 
_ccdc_geom_bond_type 
O1          Cr19   1.977       .  S
O1            C9   1.248       .  A
O2          Cr19   2.221       .  S
O2            C3   1.327       .  A
C3            O4   1.239       .  A
C3         C1200   1.577       .  S
O4          Cr20   1.902       .  S
O5          Cr20   1.933       .  S
O5            C6   1.260       .  A
C6            O7   1.264       .  A
C6         C1243   1.418       .  S
O7          Cr21   1.964       .  S
O8          Cr21   1.973       .  S
O8            C9   1.244       .  A
C9         C1220   1.477       .  S
O10         Cr19   2.233       .  S
O10          C18   1.331       .  A
O11         Cr19   1.961       .  S
O11          C12   1.247       .  A
C12          O13   1.251       .  A
C12        C1210   1.472       .  S
O13         Cr20   1.975       .  S
O14         Cr20   1.917       .  S
O14          C15   1.257       .  A
C15          O16   1.248       .  A
C15        C1230   1.416       .  S
O16         Cr21   1.967       .  S
O17         Cr21   1.922       .  S
O17          C18   1.249       .  A
C18        C1190   1.589       .  S
Cr19         O22   1.726       .  S
Cr20         O22   1.749       .  S
Cr21         O22   1.789       .  S
O23         Cr41   1.930       .  S
O23          C31   1.245       .  A
O24         Cr41   2.237       .  S
O24          C25   1.323       .  A
C25          O26   1.243       .  A
C25        C1143   1.601       .  S
O26         Cr42   1.947       .  S
O27         Cr42   2.022       .  S
O27          C28   1.273       .  A
C28          O29   1.243       .  A
C28        C1170   1.465       .  S
O29         Cr43   1.875       .  S
O30         Cr43   2.091       .  S
O30          C31   1.277       .  A
C31        C1160   1.480       .  S
O32         Cr41   2.281       .  S
O32          C40   1.324       .  A
O33         Cr41   1.930       .  S
O33          C34   1.254       .  A
C34          O35   1.272       .  A
C34        C1213   1.477       .  S
O35         Cr42   2.021       .  S
O36         Cr42   1.925       .  S
O36          C37   1.240       .  A
C37          O38   1.277       .  A
C37        C1180   1.452       .  S
O38         Cr43   2.002       .  S
O39         Cr43   1.926       .  S
O39          C40   1.231       .  A
C40        C1150   1.603       .  S
Cr41         O44   1.724       .  S
Cr42         O44   1.757       .  S
Cr43         O44   1.759       .  S
O45         Cr63   1.886       .  S
O45          C53   1.233       .  A
O46         Cr63   2.231       .  S
O46          C47   1.329       .  A
C47          O48   1.237       .  A
C47        C1090   1.614       .  S
O48         Cr64   1.929       .  S
O49         Cr64   2.015       .  S
O49          C50   1.278       .  A
C50          O51   1.264       .  A
C50        C1120   1.474       .  S
O51         Cr65   1.927       .  S
O52         Cr65   2.081       .  S
O52          C53   1.259       .  A
C53        C1110   1.480       .  S
O54         Cr63   2.280       .  S
O54          C62   1.338       .  A
O55         Cr63   1.962       .  S
O55          C56   1.251       .  A
C56          O57   1.264       .  A
C56        C1163   1.485       .  S
O57         Cr64   1.984       .  S
O58         Cr64   1.933       .  S
O58          C59   1.233       .  A
C59          O60   1.262       .  A
C59        C1130   1.429       .  S
O60         Cr65   1.951       .  S
O61         Cr65   1.940       .  S
O61          C62   1.247       .  A
C62        C1100   1.607       .  S
Cr63         O66   1.705       .  S
Cr64         O66   1.781       .  S
Cr65         O66   1.783       .  S
O67         Cr85   1.949       .  S
O67          C75   1.229       .  A
O68         Cr85   2.184       .  S
O68          C69   1.307       .  A
C69          O70   1.256       .  A
C69        C1060   1.631       .  S
O70         Cr86   1.994       .  S
O71         Cr86   1.995       .  S
O71          C72   1.276       .  A
C72          O73   1.285       .  A
C72        C1080   1.441       .  S
O73         Cr87   1.924       .  S
O74         Cr87   2.007       .  S
O74          C75   1.234       .  A
C75        C1223   1.481       .  S
O76         Cr85   2.270       .  S
O76          C84   1.351       .  A
O77         Cr85   2.000       .  S
O77          C78   1.261       .  A
C78          O79   1.263       .  A
C78        C1113   1.480       .  S
O79         Cr86   1.966       .  S
O80         Cr86   1.984       .  S
O80          C81   1.243       .  A
C81          O82   1.222       .  A
C81        C1070   1.415       .  S
O82         Cr87   1.901       .  S
O83         Cr87   1.990       .  S
O83          C84   1.285       .  A
C84        C1050   1.637       .  S
Cr85         O88   1.696       .  S
Cr86         O88   1.803       .  S
Cr87         O88   1.764       .  S
O89        Cr107   1.984       .  S
O89          C97   1.252   1_556  A
O90        Cr107   2.180       .  S
O90          C91   1.314       .  A
C91          O92   1.261       .  A
C91         C993   1.617       .  S
O92        Cr108   1.997       .  S
O93        Cr108   1.915       .  S
O93          C94   1.244   1_556  A
C94          O95   1.255       .  A
C94        C1030   1.422       .  S
O95        Cr109   1.944       .  S
O96        Cr109   1.973       .  S
O96          C97   1.255       .  A
C97        C1020   1.474       .  S
O98        Cr107   2.201   1_554  S
O98         C106   1.316       .  A
O99        Cr107   1.974       .  S
O99         C100   1.251       .  A
C100        O101   1.262       .  A
C100       C1010   1.458       .  S
O101       Cr108   1.976       .  S
O102       Cr108   1.975   1_554  S
O102        C103   1.251       .  A
C103        O104   1.247       .  A
C103       C1040   1.413       .  S
O104       Cr109   1.920       .  S
O105       Cr109   1.982       .  S
O105        C106   1.247       .  A
C106       C1003   1.612       .  S
Cr107       O110   1.712       .  S
Cr108       O110   1.795       .  S
Cr109       O110   1.752   1_554  S
O111       Cr129   1.889   1_554  S
O111        C119   1.276   1_554  A
O112       Cr129   2.233   1_554  S
O112        C113   1.321       .  A
C113        O114   1.239       .  A
C113        C960   1.610       .  S
O114       Cr130   1.962   1_554  S
O115       Cr130   2.012       .  S
O115        C116   1.288       .  A
C116        O117   1.233       .  A
C116        C980   1.405       .  S
O117       Cr131   1.896       .  S
O118       Cr131   2.074       .  S
O118        C119   1.297       .  A
C119       C1023   1.472   1_556  S
O120       Cr129   2.239       .  S
O120        C128   1.332       .  A
O121       Cr129   1.927   1_554  S
O121        C122   1.264       .  A
C122        O123   1.285   1_554  A
C122        C970   1.429       .  S
O123       Cr130   1.978       .  S
O124       Cr130   1.963       .  S
O124        C125   1.259       .  A
C125        O126   1.262       .  A
C125       C1133   1.458       .  S
O126       Cr131   1.975       .  S
O127       Cr131   1.949       .  S
O127        C128   1.252       .  A
C128       C1140   1.606       .  S
Cr129       O132   1.570       .  S
Cr130       O132   1.728       .  S
Cr131       O132   1.735       .  S
O133       Cr151   1.971   1_556  S
O133        C141   1.254       .  A
O134       Cr151   2.229       .  S
O134        C135   1.323       .  A
C135        O136   1.242       .  A
C135        C930   1.629       .  S
O136       Cr152   1.970   1_554  S
O137       Cr152   1.930       .  S
O137        C138   1.244       .  A
C138        O139   1.246       .  A
C138        C953   1.389       .  S
O139       Cr153   1.920       .  S
O140       Cr153   1.961       .  S
O140        C141   1.262       .  A
C141        C940   1.454       .  S
O142       Cr151   2.212   1_556  S
O142        C150   1.316       .  A
O143       Cr151   1.966       .  S
O143        C144   1.250       .  A
C144        O145   1.259   1_554  A
C144        C973   1.441       .  S
O145       Cr152   1.939       .  S
O146       Cr152   1.939       .  S
O146        C147   1.258       .  A
C147        O148   1.256       .  A
C147       C1173   1.450       .  S
O148       Cr153   1.979       .  S
O149       Cr153   1.949       .  S
O149        C150   1.235       .  A
C150       C1103   1.607       .  S
Cr151       O154   1.699   1_554  S
Cr152       O154   1.742       .  S
Cr153       O154   1.783       .  S
O155       Cr173   1.922       .  S
O155        C163   1.239   1_556  A
O156       Cr173   2.226       .  S
O156        C157   1.327       .  A
C157        O158   1.239       .  A
C157        C890   1.580       .  S
O158       Cr174   1.914   1_556  S
O159       Cr174   1.941       .  S
O159        C160   1.258       .  A
C160        O161   1.263       .  A
C160        C910   1.486   1_554  S
O161       Cr175   2.016       .  S
O162       Cr175   1.974       .  S
O162        C163   1.255       .  A
C163        C943   1.460   1_554  S
O164       Cr173   2.210   1_554  S
O164        C172   1.325       .  A
O165       Cr173   1.908       .  S
O165        C166   1.236       .  A
C166        O167   1.251       .  A
C166       C1013   1.461       .  S
O167       Cr174   2.011   1_556  S
O168       Cr174   1.948       .  S
O168        C169   1.257       .  A
C169        O170   1.262       .  A
C169        C923   1.465       .  S
O170       Cr175   1.975       .  S
O171       Cr175   2.005       .  S
O171        C172   1.264       .  A
C172        C900   1.625       .  S
Cr173       O176   1.720   1_556  S
Cr174       O176   1.819       .  S
Cr175       O176   1.790       .  S
O177       Cr195   1.925       .  S
O177        C185   1.253       .  A
O178       Cr195   2.300       .  S
O178        C179   1.335       .  A
C179        O180   1.228       .  A
C179       C1053   1.619       .  S
O180       Cr196   1.928       .  S
O181       Cr196   1.954       .  S
O181        C182   1.263       .  A
C182        O183   1.248       .  A
C182       C1123   1.443       .  S
O183       Cr197   1.963       .  S
O184       Cr197   2.003       .  S
O184        C185   1.270       .  A
C185        C880   1.468       .  S
O186       Cr195   2.259       .  S
O186        C194   1.331       .  A
O187       Cr195   1.945       .  S
O187        C188   1.248       .  A
C188        O189   1.268       .  A
C188        C870   1.486       .  S
O189       Cr196   2.074       .  S
O190       Cr196   1.871       .  S
O190        C191   1.246       .  A
C191        O192   1.268       .  A
C191        C983   1.434       .  S
O192       Cr197   1.998       .  S
O193       Cr197   1.937       .  S
O193        C194   1.241       .  A
C194        C990   1.612       .  S
Cr195       O198   1.716       .  S
Cr196       O198   1.760       .  S
Cr197       O198   1.761       .  S
O199       Cr217   1.913       .  S
O199        C207   1.224       .  A
O200       Cr217   2.191       .  S
O200        C201   1.319       .  A
C201        O202   1.251       .  A
C201        C810   1.589       .  S
O202       Cr218   1.972       .  S
O203       Cr218   1.996       .  S
O203        C204   1.263       .  A
C204        O205   1.260       .  A
C204        C850   1.442       .  S
O205       Cr219   1.903       .  S
O206       Cr219   2.074       .  S
O206        C207   1.259       .  A
C207        C840   1.464       .  S
O208       Cr217   2.286       .  S
O208        C216   1.329       .  A
O209       Cr217   1.980       .  S
O209        C210   1.260       .  A
C210        O211   1.262       .  A
C210        C830   1.477       .  S
O211       Cr218   1.993       .  S
O212       Cr218   1.976       .  S
O212        C213   1.258       .  A
C213        O214   1.266       .  A
C213        C860   1.443       .  S
O214       Cr219   1.929       .  S
O215       Cr219   1.915       .  S
O215        C216   1.226       .  A
C216        C820   1.590       .  S
Cr217       O220   1.702       .  S
Cr218       O220   1.761       .  S
Cr219       O220   1.742       .  S
O221       Cr239   1.922       .  S
O221        C229   1.233       .  A
O222       Cr239   2.248       .  S
O222        C223   1.314       .  A
C223        O224   1.214       .  A
C223        C790   1.612       .  S
O224       Cr240   1.951       .  S
O225       Cr240   2.024       .  S
O225        C226   1.268       .  A
C226        O227   1.251       .  A
C226        C803   1.470       .  S
O227       Cr241   1.924       .  S
O228       Cr241   2.018       .  S
O228        C229   1.267       .  A
C229        C843   1.461       .  S
O230       Cr239   2.216       .  S
O230        C238   1.327       .  A
O231       Cr239   1.933       .  S
O231        C232   1.252       .  A
C232        O233   1.274       .  A
C232        C883   1.465       .  S
O233       Cr240   2.003       .  S
O234       Cr240   1.884       .  S
O234        C235   1.233       .  A
C235        O236   1.274       .  A
C235       C1073   1.430       .  S
O236       Cr241   1.988       .  S
O237       Cr241   1.996       .  S
O237        C238   1.256       .  A
C238       C1093   1.623       .  S
Cr239       O242   1.705       .  S
Cr240       O242   1.788       .  S
Cr241       O242   1.764       .  S
O243       Cr261   2.022       .  S
O243        C251   1.267       .  A
O244       Cr261   2.231       .  S
O244        C245   1.315       .  A
C245        O246   1.228       .  A
C245        C963   1.617       .  S
O246       Cr262   1.951       .  S
O247       Cr262   1.963       .  S
O247        C248   1.251       .  A
C248        O249   1.251       .  A
C248       C1033   1.409       .  S
O249       Cr263   1.920       .  S
O250       Cr263   1.943       .  S
O250        C251   1.255       .  A
C251        C873   1.477       .  S
O252       Cr261   2.197       .  S
O252        C260   1.312       .  A
O253       Cr261   1.998       .  S
O253        C254   1.264       .  A
C254        O255   1.275       .  A
C254        C833   1.500       .  S
O255       Cr262   1.983       .  S
O256       Cr262   1.960       .  S
O256        C257   1.245       .  A
C257        O258   1.260       .  A
C257        C780   1.434       .  S
O258       Cr263   1.973       .  S
O259       Cr263   1.960       .  S
O259        C260   1.243       .  A
C260        C770   1.606       .  S
Cr261       O264   1.713       .  S
Cr262       O264   1.750       .  S
Cr263       O264   1.786       .  S
O265       Cr283   1.950       .  S
O265        C273   1.261       .  A
O266       Cr283   2.193   1_545  S
O266        C267   1.319       .  A
C267        O268   1.266       .  A
C267        C893   1.606       .  S
O268       Cr284   2.010       .  S
O269       Cr284   1.901       .  S
O269        C270   1.244       .  A
C270        O271   1.272       .  A
C270        C950   1.390       .  S
O271       Cr285   1.946   1_545  S
O272       Cr285   1.982       .  S
O272        C273   1.279       .  A
C273        C753   1.435       .  S
O274       Cr283   2.167       .  S
O274        C282   1.311       .  A
O275       Cr283   1.893       .  S
O275        C276   1.276       .  A
C276        O277   1.298   1_565  A
C276        C763   1.455       .  S
O277       Cr284   2.064       .  S
O278       Cr284   1.942       .  S
O278        C279   1.264       .  A
C279        O280   1.270       .  A
C279       C1183   1.450       .  S
O280       Cr285   1.998   1_545  S
O281       Cr285   1.993       .  S
O281        C282   1.259       .  A
C282       C1193   1.594       .  S
Cr283       O286   1.589   1_565  S
Cr284       O286   1.713       .  S
Cr285       O286   1.712   1_565  S
O287       Cr305   1.935       .  S
O287        C295   1.252       .  A
O288       Cr305   2.330   1_565  S
O288        C289   1.362       .  A
C289        O290   1.247       .  A
C289        C690   1.617       .  S
O290       Cr306   1.916       .  S
O291       Cr306   1.929       .  S
O291        C292   1.246       .  A
C292        O293   1.242       .  A
C292        C730   1.448       .  S
O293       Cr307   1.942   1_565  S
O294       Cr307   1.974       .  S
O294        C295   1.269       .  A
C295        C720   1.457       .  S
O296       Cr305   2.241       .  S
O296        C304   1.327       .  A
O297       Cr305   1.932       .  S
O297        C298   1.236   1_545  A
C298        O299   1.243       .  A
C298        C710   1.457       .  S
O299       Cr306   2.037       .  S
O300       Cr306   1.875       .  S
O300        C301   1.248       .  A
C301        O302   1.281       .  A
C301        C743   1.429       .  S
O302       Cr307   1.995   1_565  S
O303       Cr307   1.959       .  S
O303        C304   1.242       .  A
C304        C703   1.627       .  S
Cr305       O308   1.686   1_545  S
Cr306       O308   1.774       .  S
Cr307       O308   1.767   1_545  S
O309       Cr327   1.961       .  S
O309        C317   1.256       .  A
O310       Cr327   2.273   1_565  S
O310        C311   1.336       .  A
C311        O312   1.235       .  A
C311        C670   1.607       .  S
O312       Cr328   1.921       .  S
O313       Cr328   1.949       .  S
O313        C314   1.273       .  A
C314        O315   1.255       .  A
C314        C680   1.438       .  S
O315       Cr329   1.947       .  S
O316       Cr329   1.958   1_545  S
O316        C317   1.246       .  A
C317        C723   1.440       .  S
O318       Cr327   2.281       .  S
O318        C326   1.340       .  A
O319       Cr327   1.943       .  S
O319        C320   1.251   1_545  A
C320        O321   1.260       .  A
C320        C760   1.443       .  S
O321       Cr328   2.008       .  S
O322       Cr328   1.952       .  S
O322        C323   1.251       .  A
C323        O324   1.251       .  A
C323       C1233   1.423       .  S
O324       Cr329   1.909       .  S
O325       Cr329   1.919   1_545  S
O325        C326   1.236       .  A
C326       C1153   1.599       .  S
Cr327       O330   1.716   1_545  S
Cr328       O330   1.742       .  S
Cr329       O330   1.763       .  S
O331       Cr349   1.936       .  S
O331        C339   1.248       .  A
O332       Cr349   2.229   1_545  S
O332        C333   1.320       .  A
C333        O334   1.234       .  A
C333        C933   1.623       .  S
O334       Cr350   1.955       .  S
O335       Cr350   1.980       .  S
O335        C336   1.247       .  A
C336        O337   1.246       .  A
C336        C913   1.450       .  S
O337       Cr351   1.942       .  S
O338       Cr351   1.975       .  S
O338        C339   1.259   1_545  A
C339        C750   1.470       .  S
O340       Cr349   2.228       .  S
O340        C348   1.328       .  A
O341       Cr349   1.966   1_545  S
O341        C342   1.256       .  A
C342        O343   1.270       .  A
C342        C713   1.455       .  S
O343       Cr350   1.982       .  S
O344       Cr350   1.897       .  S
O344        C345   1.240       .  A
C345        O346   1.240       .  A
C345        C660   1.393       .  S
O346       Cr351   1.925       .  S
O347       Cr351   1.951   1_565  S
O347        C348   1.239       .  A
C348        C650   1.599       .  S
Cr349       O352   1.693   1_565  S
Cr350       O352   1.810       .  S
Cr351       O352   1.781       .  S
O353       Cr371   1.898       .  S
O353        C361   1.276       .  A
O354       Cr371   2.197   1_455  S
O354        C355   1.316       .  A
C355        O356   1.263       .  A
C355        C653   1.614       .  S
O356       Cr372   2.007       .  S
O357       Cr372   1.968       .  S
O357        C358   1.267       .  A
C358        O359   1.253       .  A
C358        C740   1.409       .  S
O359       Cr373   1.919       .  S
O360       Cr373   2.054   1_655  S
O360        C361   1.294       .  A
C361        C620   1.473       .  S
O362       Cr371   2.240       .  S
O362        C370   1.333       .  A
O363       Cr371   1.975       .  S
O363        C364   1.269       .  A
C364        O365   1.278   1_655  A
C364        C630   1.453       .  S
O365       Cr372   1.970       .  S
O366       Cr372   1.965       .  S
O366        C367   1.278       .  A
C367        O368   1.241       .  A
C367        C643   1.406       .  S
O368       Cr373   1.921       .  S
O369       Cr373   1.989   1_655  S
O369        C370   1.257       .  A
C370        C610   1.622       .  S
Cr371       O374   1.585   1_655  S
Cr372       O374   1.719       .  S
Cr373       O374   1.718       .  S
O375       Cr393   1.985       .  S
O375        C383   1.262       .  A
O376       Cr393   2.269   1_455  S
O376        C377   1.335       .  A
C377        O378   1.241   1_455  A
C377        C903   1.634       .  S
O378       Cr394   1.934       .  S
O379       Cr394   1.987       .  S
O379        C380   1.276       .  A
C380        O381   1.247       .  A
C380       C1043   1.406       .  S
O381       Cr395   1.911       .  S
O382       Cr395   1.953       .  S
O382        C383   1.244       .  A
C383        C590   1.448       .  S
O384       Cr393   2.256       .  S
O384        C392   1.333       .  A
O385       Cr393   1.956   1_455  S
O385        C386   1.254       .  A
C386        O387   1.258       .  A
C386        C600   1.481       .  S
O387       Cr394   1.993   1_455  S
O388       Cr394   1.966       .  S
O388        C389   1.248       .  A
C389        O390   1.246       .  A
C389        C783   1.438       .  S
O390       Cr395   1.922       .  S
O391       Cr395   1.922       .  S
O391        C392   1.238       .  A
C392        C823   1.579       .  S
Cr393       O396   1.717       .  S
Cr394       O396   1.748       .  S
Cr395       O396   1.760       .  S
O397       Cr415   1.965   1_455  S
O397        C405   1.257   1_455  A
O398       Cr415   2.290       .  S
O398        C399   1.348       .  A
C399        O400   1.245       .  A
C399        C773   1.602       .  S
O400       Cr416   1.917       .  S
O401       Cr416   1.943       .  S
O401        C402   1.237       .  A
C402        O403   1.244       .  A
C402        C863   1.470       .  S
O403       Cr417   1.974       .  S
O404       Cr417   1.982       .  S
O404        C405   1.265       .  A
C405        C603   1.483   1_655  S
O406       Cr415   2.230   1_455  S
O406        C414   1.325       .  A
O407       Cr415   1.965       .  S
O407        C408   1.245       .  A
C408        O409   1.236       .  A
C408        C633   1.456       .  S
O409       Cr416   1.978       .  S
O410       Cr416   1.881       .  S
O410        C411   1.255       .  A
C411        O412   1.282       .  A
C411        C580   1.451       .  S
O412       Cr417   1.982       .  S
O413       Cr417   1.984   1_455  S
O413        C414   1.251       .  A
C414        C570   1.625       .  S
Cr415       O418   1.714       .  S
Cr416       O418   1.789       .  S
Cr417       O418   1.798       .  S
O419       Cr437   1.968       .  S
O419        C427   1.259       .  A
O420       Cr437   2.213       .  S
O420        C421   1.324       .  A
C421        O422   1.242       .  A
C421       C1000   1.599       .  S
O422       Cr438   1.933   1_655  S
O423       Cr438   1.961       .  S
O423        C424   1.278       .  A
C424        O425   1.276       .  A
C424        C920   1.426       .  S
O425       Cr439   1.968       .  S
O426       Cr439   1.966   1_655  S
O426        C427   1.273       .  A
C427        C593   1.462       .  S
O428       Cr437   2.237   1_455  S
O428        C436   1.329       .  A
O429       Cr437   1.805       .  S
O429        C430   1.256       .  A
C430        O431   1.317       .  A
C430        C623   1.452       .  S
O431       Cr438   2.162   1_655  S
O432       Cr438   1.908       .  S
O432        C433   1.256       .  A
C433        O434   1.251       .  A
C433        C663   1.394       .  S
O434       Cr439   1.951       .  S
O435       Cr439   2.017       .  S
O435        C436   1.267       .  A
C436        C700   1.642       .  S
Cr437       O440   1.564   1_655  S
Cr438       O440   1.724       .  S
Cr439       O440   1.743       .  S
O441       Cr459   1.914       .  S
O441        C449   1.240       .  A
O442       Cr459   2.191       .  S
O442        C443   1.311       .  A
C443        O444   1.258       .  A
C443        C613   1.627       .  S
O444       Cr460   1.992       .  S
O445       Cr460   1.993       .  S
O445        C446   1.251       .  A
C446        O447   1.224       .  A
C446        C583   1.437       .  S
O447       Cr461   1.946       .  S
O448       Cr461   2.055       .  S
O448        C449   1.271       .  A
C449        C550   1.479       .  S
O450       Cr459   2.213       .  S
O450        C458   1.324       .  A
O451       Cr459   1.983       .  S
O451        C452   1.254       .  A
C452        O453   1.263       .  A
C452        C560   1.464       .  S
O453       Cr460   1.965       .  S
O454       Cr460   1.982       .  S
O454        C455   1.263       .  A
C455        O456   1.255       .  A
C455        C853   1.457       .  S
O456       Cr461   1.968       .  S
O457       Cr461   1.962       .  S
O457        C458   1.242       .  A
C458        C793   1.613       .  S
Cr459       O462   1.711       .  S
Cr460       O462   1.804       .  S
Cr461       O462   1.749       .  S
O463       Cr481   1.973       .  S
O463        C471   1.246       .  A
O464       Cr481   2.239       .  S
O464        C465   1.328       .  A
C465        O466   1.245       .  A
C465        C693   1.637       .  S
O466       Cr482   1.982       .  S
O467       Cr482   1.943       .  S
O467        C468   1.255       .  A
C468        O469   1.251       .  A
C468        C683   1.436       .  S
O469       Cr483   1.914       .  S
O470       Cr483   1.951       .  S
O470        C471   1.254       .  A
C471        C530   1.440       .  S
O472       Cr481   2.234       .  S
O472        C480   1.327       .  A
O473       Cr481   1.950       .  S
O473        C474   1.242       .  A
C474        O475   1.262       .  A
C474        C540   1.480       .  S
O475       Cr482   1.979       .  S
O476       Cr482   1.988       .  S
O476        C477   1.262       .  A
C477        O478   1.244       .  A
C477       C1240   1.448       .  S
O478       Cr483   1.942       .  S
O479       Cr483   1.976       .  S
O479        C480   1.247       .  A
C480       C1063   1.632       .  S
Cr481       O484   1.706       .  S
Cr482       O484   1.780       .  S
Cr483       O484   1.792       .  S
O485       Cr503   1.920       .  S
O485        C493   1.242       .  A
O486       Cr503   2.232       .  S
O486        C487   1.329       .  A
C487        O488   1.237       .  A
C487        C813   1.586       .  S
O488       Cr504   1.917       .  S
O489       Cr504   2.000       .  S
O489        C490   1.274       .  A
C490        O491   1.249       .  A
C490        C800   1.480       .  S
O491       Cr505   1.912       .  S
O492       Cr505   2.062       .  S
O492        C493   1.266       .  A
C493        C563   1.468       .  S
O494       Cr503   2.261       .  S
O494        C502   1.325       .  A
O495       Cr503   1.958       .  S
O495        C496   1.251       .  A
C496        O497   1.262       .  A
C496        C543   1.481       .  S
O497       Cr504   1.992       .  S
O498       Cr504   1.921       .  S
O498        C499   1.236       .  A
C499        O500   1.267       .  A
C499       C1083   1.424       .  S
O500       Cr505   1.994       .  S
O501       Cr505   1.938       .  S
O501        C502   1.240       .  A
C502       C1203   1.585       .  S
Cr503       O506   1.705       .  S
Cr504       O506   1.753       .  S
Cr505       O506   1.783       .  S
O507       Cr525   1.982       .  S
O507        C515   1.259       .  A
O508       Cr525   2.191       .  S
O508        C509   1.313       .  A
C509        O510   1.254       .  A
C509        C673   1.616       .  S
O510       Cr526   1.977       .  S
O511       Cr526   1.935       .  S
O511        C512   1.246       .  A
C512        O513   1.256       .  A
C512        C733   1.439       .  S
O513       Cr527   1.956       .  S
O514       Cr527   1.943       .  S
O514        C515   1.255       .  A
C515        C533   1.473       .  S
O516       Cr525   2.226       .  S
O516        C524   1.316       .  A
O517       Cr525   2.004       .  S
O517        C518   1.259       .  A
C518        O519   1.251       .  A
C518        C553   1.452       .  S
O519       Cr526   1.910       .  S
O520       Cr526   1.949       .  S
O520        C521   1.250       .  A
C521        O522   1.225       .  A
C521        C640   1.419       .  S
O522       Cr527   1.908       .  S
O523       Cr527   2.009       .  S
O523        C524   1.247       .  A
C524        C573   1.628       .  S
Cr525       O528   1.696       .  S
Cr526       O528   1.789       .  S
Cr527       O528   1.736       .  S
C529        C530   1.383       .  A
C529        C534   1.392       .  A
C529       Br536   1.915       .  S
C530        C531   1.390       .  A
C531        C532   1.396       .  A
C531       Br538   1.928       .  S
C532        C533   1.431       .  A
C532       Br537   1.937       .  S
C533        C534   1.423       .  A
C534       Br535   1.929       .  S
C539        C540   1.427       .  A
C539        C544   1.398       .  A
C539       Br546   1.943       .  S
C540        C541   1.412       .  A
C541        C542   1.407       .  A
C541       Br548   1.931       .  S
C542        C543   1.413       .  A
C542       Br547   1.929       .  S
C543        C544   1.401       .  A
C544       Br545   1.931       .  S
C549        C550   1.415       .  A
C549        C554   1.411   1_655  A
C549       Br556   1.905       .  S
C550        C551   1.426       .  A
C551        C552   1.395       .  A
C551       Br558   1.936       .  S
C552        C553   1.392   1_655  A
C552       Br557   1.930   1_655  S
C553        C554   1.401       .  A
C554       Br555   1.922       .  S
C559        C560   1.395       .  A
C559        C564   1.393       .  A
C559       Br566   1.933       .  S
C560        C561   1.413       .  A
C561        C562   1.407       .  A
C561       Br568   1.923       .  S
C562        C563   1.401       .  A
C562       Br567   1.924       .  S
C563        C564   1.421       .  A
C564       Br565   1.928       .  S
C569        C570   1.445       .  A
C569        C574   1.477       .  A
C569       Br576   1.916       .  S
C570        C571   1.425       .  A
C571        C572   1.460       .  A
C571       Br578   1.904       .  S
C572        C573   1.439       .  A
C572       Br577   1.915       .  S
C573        C574   1.440       .  A
C574       Br575   1.921       .  S
C579        C580   1.383       .  A
C579        C584   1.379       .  A
C579       Br586   1.952       .  S
C580        C581   1.412       .  A
C581        C582   1.394       .  A
C581       Br588   1.940       .  S
C582        C583   1.407       .  A
C582       Br587   1.935       .  S
C583        C584   1.434       .  A
C584       Br585   1.935       .  S
C589        C590   1.409       .  A
C589        C594   1.400       .  A
C589       Br596   1.926   1_655  S
C590        C591   1.421       .  A
C591        C592   1.400       .  A
C591       Br598   1.929       .  S
C592        C593   1.393       .  A
C592       Br597   1.922       .  S
C593        C594   1.400       .  A
C594       Br595   1.913   1_655  S
C599        C600   1.408       .  A
C599        C604   1.401       .  A
C599       Br606   1.933       .  S
C600        C601   1.409       .  A
C601        C602   1.406       .  A
C601       Br608   1.935       .  S
C602        C603   1.422       .  A
C602       Br607   1.936       .  S
C603        C604   1.414       .  A
C604       Br605   1.930       .  S
C609        C610   1.440       .  A
C609        C614   1.462       .  A
C609       Br616   1.897       .  S
C610        C611   1.431       .  A
C611        C612   1.474       .  A
C611       Br618   1.923       .  S
C612        C613   1.453       .  A
C612       Br617   1.926       .  S
C613        C614   1.427       .  A
C614       Br615   1.921       .  S
C619        C620   1.408       .  A
C619        C624   1.356   1_565  A
C619       Br626   1.915   1_655  S
C620        C621   1.417       .  A
C621        C622   1.420   1_565  A
C621       Br628   1.923       .  S
C622        C623   1.413       .  A
C622       Br627   1.916       .  S
C623        C624   1.396       .  A
C624       Br625   1.940       .  S
C629        C630   1.404       .  A
C629        C634   1.397       .  A
C629       Br636   1.932       .  S
C630        C631   1.402       .  A
C631        C632   1.395       .  A
C631       Br638   1.927   1_655  S
C632        C633   1.407       .  A
C632       Br637   1.930   1_655  S
C633        C634   1.413       .  A
C634       Br635   1.929       .  S
C639        C640   1.400       .  A
C639        C644   1.372       .  A
C639       Br646   1.954       .  S
C640        C641   1.433       .  A
C641        C642   1.373       .  A
C641       Br648   1.928       .  S
C642        C643   1.380       .  A
C642       Br647   1.951       .  S
C643        C644   1.418       .  A
C644       Br645   1.931       .  S
C649        C650   1.427       .  A
C649        C654   1.451       .  A
C649       Br656   1.885       .  S
C650        C651   1.435       .  A
C651        C652   1.470       .  A
C651       Br658   1.922       .  S
C652        C653   1.445       .  A
C652       Br657   1.923       .  S
C653        C654   1.424       .  A
C654       Br655   1.911       .  S
C659        C660   1.404       .  A
C659        C664   1.364       .  A
C659       Br666   1.947       .  S
C660        C661   1.415       .  A
C661        C662   1.378       .  A
C661       Br668   1.942       .  S
C662        C663   1.394       .  A
C662       Br667   1.931       .  S
C663        C664   1.400       .  A
C664       Br665   1.938       .  S
C669        C670   1.435       .  A
C669        C674   1.458       .  A
C669       Br676   1.904       .  S
C670        C671   1.429       .  A
C671        C672   1.470       .  A
C671       Br678   1.913       .  S
C672        C673   1.449       .  A
C672       Br677   1.925       .  S
C673        C674   1.428       .  A
C674       Br675   1.922       .  S
C679        C680   1.412       .  A
C679        C684   1.410       .  A
C679       Br686   1.922       .  S
C680        C681   1.400       .  A
C681        C682   1.383       .  A
C681       Br688   1.912       .  S
C682        C683   1.388       .  A
C682       Br687   1.924       .  S
C683        C684   1.413       .  A
C684       Br685   1.919       .  S
C689        C690   1.455       .  A
C689        C694   1.464       .  A
C689       Br696   1.928       .  S
C690        C691   1.419       .  A
C691        C692   1.470       .  A
C691       Br698   1.926       .  S
C692        C693   1.470       .  A
C692       Br697   1.934       .  S
C693        C694   1.425       .  A
C694       Br695   1.914       .  S
C699        C700   1.447       .  A
C699        C704   1.470       .  A
C699       Br706   1.922       .  S
C700        C701   1.444       .  A
C701        C702   1.477       .  A
C701       Br708   1.911       .  S
C702        C703   1.429       .  A
C702       Br707   1.896       .  S
C703        C704   1.436       .  A
C704       Br705   1.920       .  S
C709        C710   1.393       .  A
C709        C714   1.399       .  A
C709       Br716   1.923       .  S
C710        C711   1.406   1_565  A
C711        C712   1.398       .  A
C711       Br718   1.924       .  S
C712        C713   1.405       .  A
C712       Br717   1.929       .  S
C713        C714   1.420   1_545  A
C714       Br715   1.929       .  S
C719        C720   1.405       .  A
C719        C724   1.392       .  A
C719       Br726   1.933       .  S
C720        C721   1.399       .  A
C721        C722   1.392       .  A
C721       Br728   1.917       .  S
C722        C723   1.406       .  A
C722       Br727   1.929       .  S
C723        C724   1.413       .  A
C724       Br725   1.933       .  S
C729        C730   1.399       .  A
C729        C734   1.401       .  A
C729       Br736   1.926       .  S
C730        C731   1.399       .  A
C731        C732   1.360       .  A
C731       Br738   1.920       .  S
C732        C733   1.411       .  A
C732       Br737   1.945       .  S
C733        C734   1.425       .  A
C734       Br735   1.927       .  S
C739        C740   1.414       .  A
C739        C744   1.366       .  A
C739       Br746   1.935       .  S
C740        C741   1.396       .  A
C741        C742   1.379       .  A
C741       Br748   1.948       .  S
C742        C743   1.426       .  A
C742       Br747   1.946       .  S
C743        C744   1.402       .  A
C744       Br745   1.953   1_565  S
C749        C750   1.400   1_556  A
C749        C754   1.395       .  A
C749       Br756   1.915   1_556  S
C750        C751   1.416       .  A
C751        C752   1.390   1_554  A
C751       Br758   1.932       .  S
C752        C753   1.395       .  A
C752       Br757   1.927       .  S
C753        C754   1.405       .  A
C754       Br755   1.923       .  S
C759        C760   1.412       .  A
C759        C764   1.417       .  A
C759       Br766   1.915       .  S
C760        C761   1.384       .  A
C761        C762   1.362       .  A
C761       Br768   1.922   1_565  S
C762        C763   1.402       .  A
C762       Br767   1.907       .  S
C763        C764   1.410       .  A
C764       Br765   1.921       .  S
C769        C770   1.457       .  A
C769        C774   1.463       .  A
C769       Br776   1.926       .  S
C770        C771   1.411       .  A
C771        C772   1.452       .  A
C771       Br778   1.928       .  S
C772        C773   1.449       .  A
C772       Br777   1.913       .  S
C773        C774   1.415       .  A
C774       Br775   1.917       .  S
C779        C780   1.396       .  A
C779        C784   1.386       .  A
C779       Br786   1.923       .  S
C780        C781   1.410       .  A
C781        C782   1.381       .  A
C781       Br788   1.946       .  S
C782        C783   1.415       .  A
C782       Br787   1.966       .  S
C783        C784   1.406       .  A
C784       Br785   1.928       .  S
C789        C790   1.468       .  A
C789        C794   1.463       .  A
C789       Br796   1.933       .  S
C790        C791   1.413       .  A
C791        C792   1.455       .  A
C791       Br798   1.923       .  S
C792        C793   1.458       .  A
C792       Br797   1.926       .  S
C793        C794   1.416       .  A
C794       Br795   1.920       .  S
C799        C800   1.441       .  A
C799        C804   1.393       .  A
C799       Br806   1.926       .  S
C800        C801   1.427       .  A
C801        C802   1.410       .  A
C801       Br808   1.930       .  S
C802        C803   1.405       .  A
C802       Br807   1.916       .  S
C803        C804   1.365       .  A
C804       Br805   1.898       .  S
C809        C810   1.424       .  A
C809        C814   1.457       .  A
C809       Br816   1.923       .  S
C810        C811   1.432       .  A
C811        C812   1.459       .  A
C811       Br818   1.912       .  S
C812        C813   1.415       .  A
C812       Br817   1.908       .  S
C813        C814   1.440       .  A
C814       Br815   1.919       .  S
C819        C820   1.419       .  A
C819        C824   1.458       .  A
C819       Br826   1.922       .  S
C820        C821   1.449       .  A
C821        C822   1.449       .  A
C821       Br828   1.929       .  S
C822        C823   1.417       .  A
C822       Br827   1.929       .  S
C823        C824   1.446       .  A
C824       Br825   1.915       .  S
C829        C830   1.401       .  A
C829        C834   1.393       .  A
C829       Br836   1.928       .  S
C830        C831   1.408       .  A
C831        C832   1.415       .  A
C831       Br838   1.927       .  S
C832        C833   1.426       .  A
C832       Br837   1.931       .  S
C833        C834   1.401       .  A
C834       Br835   1.878       .  S
C839        C840   1.392       .  A
C839        C844   1.402       .  A
C839       Br846   1.925       .  S
C840        C841   1.423       .  A
C841        C842   1.394       .  A
C841       Br848   1.922       .  S
C842        C843   1.391       .  A
C842       Br847   1.932       .  S
C843        C844   1.426       .  A
C844       Br845   1.926       .  S
C849        C850   1.399       .  A
C849        C854   1.381       .  A
C849       Br856   1.953       .  S
C850        C851   1.410       .  A
C851        C852   1.397       .  A
C851       Br858   1.935       .  S
C852        C853   1.419       .  A
C852       Br857   1.940       .  S
C853        C854   1.417       .  A
C854       Br855   1.932       .  S
C859        C860   1.405       .  A
C859        C864   1.414       .  A
C859       Br866   1.929       .  S
C860        C861   1.415       .  A
C861        C862   1.387       .  A
C861       Br868   1.917       .  S
C862        C863   1.413       .  A
C862       Br867   1.937       .  S
C863        C864   1.425       .  A
C864       Br865   1.935       .  S
C869        C870   1.415       .  A
C869        C874   1.400       .  A
C869       Br876   1.933       .  S
C870        C871   1.411       .  A
C871        C872   1.415   1_556  A
C871       Br878   1.920       .  S
C872        C873   1.409       .  A
C872       Br877   1.922       .  S
C873        C874   1.404   1_554  A
C874       Br875   1.932       .  S
C879        C880   1.404       .  A
C879        C884   1.403       .  A
C879       Br886   1.923       .  S
C880        C881   1.388       .  A
C881        C882   1.392       .  A
C881       Br888   1.927       .  S
C882        C883   1.435       .  A
C882       Br887   1.943       .  S
C883        C884   1.415       .  A
C884       Br885   1.926       .  S
C889        C890   1.442       .  A
C889        C894   1.470       .  A
C889       Br896   1.921       .  S
C890        C891   1.416       .  A
C891        C892   1.446       .  A
C891       Br898   1.922       .  S
C892        C893   1.432       .  A
C892       Br897   1.899       .  S
C893        C894   1.433       .  A
C894       Br895   1.919       .  S
C899        C900   1.420       .  A
C899        C904   1.464       .  A
C899       Br906   1.931       .  S
C900        C901   1.456       .  A
C901        C902   1.473       .  A
C901       Br908   1.926       .  S
C902        C903   1.424       .  A
C902       Br907   1.925       .  S
C903        C904   1.466       .  A
C904       Br905   1.939       .  S
C909        C910   1.427       .  A
C909        C914   1.385   1_556  A
C909       Br916   1.913       .  S
C910        C911   1.405   1_556  A
C911        C912   1.394       .  A
C911       Br918   1.915   1_554  S
C912        C913   1.409       .  A
C912       Br917   1.908       .  S
C913        C914   1.415       .  A
C914       Br915   1.947       .  S
C919        C920   1.401       .  A
C919        C924   1.400       .  A
C919       Br926   1.933       .  S
C920        C921   1.405       .  A
C921        C922   1.382       .  A
C921       Br928   1.928   1_455  S
C922        C923   1.419       .  A
C922       Br927   1.936       .  S
C923        C924   1.420       .  A
C924       Br925   1.940       .  S
C929        C930   1.422       .  A
C929        C934   1.467       .  A
C929       Br936   1.925       .  S
C930        C931   1.463       .  A
C931        C932   1.458       .  A
C931       Br938   1.916       .  S
C932        C933   1.415       .  A
C932       Br937   1.931       .  S
C933        C934   1.467       .  A
C934       Br935   1.935       .  S
C939        C940   1.406       .  A
C939        C944   1.394       .  A
C939       Br946   1.930       .  S
C940        C941   1.416   1_556  A
C941        C942   1.393       .  A
C941       Br948   1.935       .  S
C942        C943   1.402   1_554  A
C942       Br947   1.930       .  S
C943        C944   1.409       .  A
C944       Br945   1.930       .  S
C949        C950   1.389       .  A
C949        C954   1.366       .  A
C949       Br956   1.938       .  S
C950        C951   1.414       .  A
C951        C952   1.372       .  A
C951       Br958   1.939       .  S
C952        C953   1.397       .  A
C952       Br957   1.942       .  S
C953        C954   1.406       .  A
C954       Br955   1.922       .  S
C959        C960   1.463       .  A
C959        C964   1.463       .  A
C959       Br966   1.935       .  S
C960        C961   1.418       .  A
C961        C962   1.460       .  A
C961       Br968   1.926       .  S
C962        C963   1.460       .  A
C962       Br967   1.938       .  S
C963        C964   1.419       .  A
C964       Br965   1.918       .  S
C969        C970   1.404       .  A
C969        C974   1.390       .  A
C969       Br976   1.928       .  S
C970        C971   1.410       .  A
C971        C972   1.385       .  A
C971       Br978   1.935       .  S
C972        C973   1.398       .  A
C972       Br977   1.920       .  S
C973        C974   1.402       .  A
C974       Br975   1.927       .  S
C979        C980   1.411       .  A
C979        C984   1.385       .  A
C979       Br986   1.947       .  S
C980        C981   1.363       .  A
C981        C982   1.370       .  A
C981       Br988   1.903   1_556  S
C982        C983   1.434       .  A
C982       Br987   1.931       .  S
C983        C984   1.420       .  A
C984       Br985   1.943       .  S
C989        C990   1.418       .  A
C989        C994   1.454       .  A
C989       Br996   1.865       .  S
C990        C991   1.432       .  A
C991        C992   1.474       .  A
C991       Br998   1.914       .  S
C992        C993   1.450       .  A
C992       Br997   1.923       .  S
C993        C994   1.421       .  A
C994       Br995   1.910       .  S
C999       C1000   1.453       .  A
C999       C1004   1.457       .  A
C999      Br1006   1.932       .  S
C1000      C1001   1.416       .  A
C1001      C1002   1.459       .  A
C1001     Br1008   1.925       .  S
C1002      C1003   1.461       .  A
C1002     Br1007   1.930       .  S
C1003      C1004   1.421       .  A
C1004     Br1005   1.921       .  S
C1009      C1010   1.415       .  A
C1009      C1014   1.402       .  A
C1009     Br1016   1.927       .  S
C1010      C1011   1.400       .  A
C1011      C1012   1.394   1_655  A
C1011     Br1018   1.931       .  S
C1012      C1013   1.414       .  A
C1012     Br1017   1.934       .  S
C1013      C1014   1.402   1_455  A
C1014     Br1015   1.928       .  S
C1019      C1020   1.414   1_556  A
C1019      C1024   1.404       .  A
C1019     Br1026   1.933       .  S
C1020      C1021   1.414       .  A
C1021      C1022   1.406       .  A
C1021     Br1028   1.927       .  S
C1022      C1023   1.404       .  A
C1022     Br1027   1.925       .  S
C1023      C1024   1.409   1_554  A
C1024     Br1025   1.931       .  S
C1029      C1030   1.411       .  A
C1029      C1034   1.386       .  A
C1029     Br1036   1.936   1_554  S
C1030      C1031   1.406       .  A
C1031      C1032   1.360       .  A
C1031     Br1038   1.933       .  S
C1032      C1033   1.403       .  A
C1032     Br1037   1.937       .  S
C1033      C1034   1.408       .  A
C1034     Br1035   1.941   1_554  S
C1039      C1040   1.399       .  A
C1039      C1044   1.393       .  A
C1039     Br1046   1.915       .  S
C1040      C1041   1.404       .  A
C1041      C1042   1.384       .  A
C1041     Br1048   1.922       .  S
C1042      C1043   1.387       .  A
C1042     Br1047   1.921       .  S
C1043      C1044   1.391       .  A
C1044     Br1045   1.918       .  S
C1049      C1050   1.426       .  A
C1049      C1054   1.467       .  A
C1049     Br1056   1.904       .  S
C1050      C1051   1.455       .  A
C1051      C1052   1.474       .  A
C1051     Br1058   1.923       .  S
C1052      C1053   1.427       .  A
C1052     Br1057   1.926       .  S
C1053      C1054   1.449       .  A
C1054     Br1055   1.919       .  S
C1059      C1060   1.457       .  A
C1059      C1064   1.475       .  A
C1059     Br1066   1.928       .  S
C1060      C1061   1.422       .  A
C1061      C1062   1.462       .  A
C1061     Br1068   1.923       .  S
C1062      C1063   1.457       .  A
C1062     Br1067   1.931       .  S
C1063      C1064   1.428       .  A
C1064     Br1065   1.924       .  S
C1069      C1070   1.421       .  A
C1069      C1074   1.382       .  A
C1069     Br1076   1.922       .  S
C1070      C1071   1.416       .  A
C1071      C1072   1.410       .  A
C1071     Br1078   1.920       .  S
C1072      C1073   1.375       .  A
C1072     Br1077   1.911       .  S
C1073      C1074   1.365       .  A
C1074     Br1075   1.898       .  S
C1079      C1080   1.397       .  A
C1079      C1084   1.385       .  A
C1079     Br1086   1.920       .  S
C1080      C1081   1.412       .  A
C1081      C1082   1.386       .  A
C1081     Br1088   1.933       .  S
C1082      C1083   1.411       .  A
C1082     Br1087   1.932       .  S
C1083      C1084   1.407       .  A
C1084     Br1085   1.927       .  S
C1089      C1090   1.405       .  A
C1089      C1094   1.453       .  A
C1089     Br1096   1.909       .  S
C1090      C1091   1.459       .  A
C1091      C1092   1.476       .  A
C1091     Br1098   1.926       .  S
C1092      C1093   1.430       .  A
C1092     Br1097   1.919       .  S
C1093      C1094   1.422       .  A
C1094     Br1095   1.832       .  S
C1099      C1100   1.418       .  A
C1099      C1104   1.461       .  A
C1099     Br1106   1.925       .  S
C1100      C1101   1.456       .  A
C1101      C1102   1.455       .  A
C1101     Br1108   1.933       .  S
C1102      C1103   1.418       .  A
C1102     Br1107   1.926       .  S
C1103      C1104   1.458       .  A
C1104     Br1105   1.930       .  S
C1109      C1110   1.420       .  A
C1109      C1114   1.398       .  A
C1109     Br1116   1.927       .  S
C1110      C1111   1.407       .  A
C1111      C1112   1.414       .  A
C1111     Br1118   1.920       .  S
C1112      C1113   1.409       .  A
C1112     Br1117   1.920       .  S
C1113      C1114   1.399       .  A
C1114     Br1115   1.933       .  S
C1119      C1120   1.421       .  A
C1119      C1124   1.377       .  A
C1119     Br1126   1.917       .  S
C1120      C1121   1.416       .  A
C1121      C1122   1.405       .  A
C1121     Br1128   1.922       .  S
C1122      C1123   1.400       .  A
C1122     Br1127   1.918       .  S
C1123      C1124   1.395       .  A
C1124     Br1125   1.927       .  S
C1129      C1130   1.384       .  A
C1129      C1134   1.397       .  A
C1129     Br1136   1.918       .  S
C1130      C1131   1.396       .  A
C1131      C1132   1.400       .  A
C1131     Br1138   1.923       .  S
C1132      C1133   1.417       .  A
C1132     Br1137   1.921       .  S
C1133      C1134   1.429       .  A
C1134     Br1135   1.927       .  S
C1139      C1140   1.457       .  A
C1139      C1144   1.462       .  A
C1139     Br1146   1.932       .  S
C1140      C1141   1.417       .  A
C1141      C1142   1.453       .  A
C1141     Br1148   1.918       .  S
C1142      C1143   1.441       .  A
C1142     Br1147   1.924       .  S
C1143      C1144   1.413       .  A
C1144     Br1145   1.920       .  S
C1149      C1150   1.450       .  A
C1149      C1154   1.460       .  A
C1149     Br1156   1.924       .  S
C1150      C1151   1.421       .  A
C1151      C1152   1.460       .  A
C1151     Br1158   1.921       .  S
C1152      C1153   1.448       .  A
C1152     Br1157   1.918       .  S
C1153      C1154   1.422       .  A
C1154     Br1155   1.922       .  S
C1159      C1160   1.403       .  A
C1159      C1164   1.411       .  A
C1159     Br1166   1.920       .  S
C1160      C1161   1.424       .  A
C1161      C1162   1.400       .  A
C1161     Br1168   1.928       .  S
C1162      C1163   1.399       .  A
C1162     Br1167   1.936       .  S
C1163      C1164   1.418       .  A
C1164     Br1165   1.927       .  S
C1169      C1170   1.420       .  A
C1169      C1174   1.388       .  A
C1169     Br1176   1.939       .  S
C1170      C1171   1.404       .  A
C1171      C1172   1.404       .  A
C1171     Br1178   1.922       .  S
C1172      C1173   1.413       .  A
C1172     Br1177   1.924       .  S
C1173      C1174   1.393       .  A
C1174     Br1175   1.923       .  S
C1179      C1180   1.382       .  A
C1179      C1184   1.382       .  A
C1179     Br1186   1.905       .  S
C1180      C1181   1.394   1_545  A
C1181      C1182   1.399       .  A
C1181     Br1188   1.926       .  S
C1182      C1183   1.424   1_565  A
C1182     Br1187   1.931       .  S
C1183      C1184   1.421       .  A
C1184     Br1185   1.941       .  S
C1189      C1190   1.426       .  A
C1189      C1194   1.469       .  A
C1189     Br1196   1.920       .  S
C1190      C1191   1.431       .  A
C1191      C1192   1.426       .  A
C1191     Br1198   1.894       .  S
C1192      C1193   1.398       .  A
C1192     Br1197   1.910       .  S
C1193      C1194   1.453       .  A
C1194     Br1195   1.925       .  S
C1199      C1200   1.413       .  A
C1199      C1204   1.448       .  A
C1199     Br1206   1.912       .  S
C1200      C1201   1.443       .  A
C1201      C1202   1.454       .  A
C1201     Br1208   1.928       .  S
C1202      C1203   1.419       .  A
C1202     Br1207   1.919       .  S
C1203      C1204   1.446       .  A
C1204     Br1205   1.929       .  S
C1209      C1210   1.407   1_545  A
C1209      C1214   1.393       .  A
C1209     Br1216   1.922   1_545  S
C1210      C1211   1.416       .  A
C1211      C1212   1.407   1_565  A
C1211     Br1218   1.930       .  S
C1212      C1213   1.407       .  A
C1212     Br1217   1.929       .  S
C1213      C1214   1.413       .  A
C1214     Br1215   1.936       .  S
C1219      C1220   1.406       .  A
C1219      C1224   1.401       .  A
C1219     Br1226   1.932       .  S
C1220      C1221   1.403       .  A
C1221      C1222   1.405       .  A
C1221     Br1228   1.928       .  S
C1222      C1223   1.416       .  A
C1222     Br1227   1.920       .  S
C1223      C1224   1.419       .  A
C1224     Br1225   1.936       .  S
C1229      C1230   1.401       .  A
C1229      C1234   1.390       .  A
C1229     Br1236   1.930       .  S
C1230      C1231   1.387       .  A
C1231      C1232   1.368       .  A
C1231     Br1238   1.938       .  S
C1232      C1233   1.420       .  A
C1232     Br1237   1.950       .  S
C1233      C1234   1.419       .  A
C1234     Br1235   1.938       .  S
C1239      C1240   1.401       .  A
C1239      C1244   1.375       .  A
C1239     Br1246   1.900       .  S
C1240      C1241   1.404       .  A
C1241      C1242   1.399       .  A
C1241     Br1248   1.923       .  S
C1242      C1243   1.412       .  A
C1242     Br1247   1.932       .  S
C1243      C1244   1.405       .  A
C1244     Br1245   1.942       .  S
