geometry optimzed in LAMMPS
_audit_creation_date              2020-11-30 
_audit_creation_method            'lammps2cif' 
_symmetry_space_group_name_H-M    'P1' 
_symmetry_Int_Tables_number       1 
_symmetry_cell_setting            triclinic 
loop_ 
_symmetry_equiv_pos_as_xyz 
  x,y,z 
_cell_length_a                    27.41214581 
_cell_length_b                    27.244619205284682 
_cell_length_c                    27.48027846415738 
_cell_angle_alpha                 89.95315138213579 
_cell_angle_beta                  89.87915284764432 
_cell_angle_gamma                 89.53862261284186 
loop_ 
_atom_site_label 
_atom_site_type_symbol 
_atom_site_fract_x 
_atom_site_fract_y 
_atom_site_fract_z 
_atom_site_charge 
O1          O  0.46077430  0.09838557  0.10707411    -0.84200
O2          O  0.38277822  0.06127019  0.17004248    -0.81300
C3          C  0.40976330  0.02517501  0.16539425     0.99200
O4          O  0.44693365  0.02490310  0.19129090    -0.81300
O5          O  0.52679525  0.05872214  0.21978889    -0.84000
C6          C  0.56226251  0.08530878  0.22842715     1.03800
O7          O  0.55884865  0.13163142  0.22179372    -0.76700
O8          O  0.51736464  0.15440435  0.12812925    -0.76900
C9          C  0.50243900  0.11911424  0.10120430     1.03700
O10         O  0.42246846  0.18793577  0.12258896    -0.84200
O11         O  0.36722109  0.15132697  0.20714123    -0.81300
C12         C  0.36439857  0.12922555  0.24854478     0.99200
O13         O  0.39374768  0.09452396  0.26104269    -0.81300
O14         O  0.48767051  0.12136895  0.29517210    -0.83900
C15         C  0.49499576  0.16752326  0.29698736     1.03700
O16         O  0.48526055  0.19431354  0.26160728    -0.76800
O17         O  0.44974129  0.22660473  0.18244713    -0.76900
C18         C  0.41979266  0.22487006  0.14829887     1.03700
Cr19       Cr  0.41126324  0.12491721  0.15444220     1.93700
Cr20       Cr  0.46202037  0.07798618  0.23998899     1.93200
Cr21       Cr  0.50073804  0.17366880  0.19662686     1.39100
O22         O  0.45847640  0.12577364  0.19766190    -1.22000
O23         O  0.15237774  0.20378613  0.35760943    -0.84200
O24         O  0.20103343  0.12963769  0.41791472    -0.81300
C25         C  0.23394629  0.15954807  0.41128305     0.99200
O26         O  0.23162786  0.19728448  0.43684480    -0.81300
O27         O  0.19091603  0.27504049  0.46645059    -0.84000
C28         C  0.16152899  0.30879136  0.47547227     1.03800
O29         O  0.11580351  0.30106298  0.47179533    -0.76700
O30         O  0.09122939  0.25467800  0.38088591    -0.76900
C31         C  0.12682298  0.24332298  0.35254282     1.03700
O32         O  0.06835658  0.15677730  0.37926328    -0.84200
O33         O  0.11569913  0.10747101  0.46131405    -0.81300
C34         C  0.13942020  0.10762684  0.50171803     0.99200
O35         O  0.17228103  0.13938747  0.51158814    -0.81300
O36         O  0.13765108  0.23225521  0.54677852    -0.83900
C37         C  0.09127687  0.23417364  0.55194175     1.03700
O38         O  0.06434770  0.22257401  0.51749645    -0.76800
O39         O  0.03113293  0.18301419  0.44111871    -0.76900
C40         C  0.03313543  0.15280749  0.40704350     1.03700
Cr41       Cr  0.13409342  0.15251082  0.40672773     1.93700
Cr42       Cr  0.18012266  0.20896163  0.48875527     1.93200
Cr43       Cr  0.07903017  0.23843786  0.45095949     1.39100
O44         O  0.13084283  0.20038191  0.44948725    -1.22000
O45         O  0.21204968  0.35636131  0.14651513    -0.84200
O46         O  0.12988952  0.41229634  0.19029911    -0.81300
C47         C  0.15714175  0.40830620  0.22561328     0.99200
O48         O  0.19279369  0.43631929  0.22614844    -0.81300
O49         O  0.27056756  0.46883598  0.19006954    -0.84000
C50         C  0.30410673  0.48143035  0.16250428     1.03800
O51         O  0.29966371  0.47692364  0.11645089    -0.76700
O52         O  0.26256105  0.38361207  0.08756775    -0.76900
C53         C  0.25247067  0.35389620  0.12236429     1.03700
O54         O  0.16774036  0.37537907  0.06032821    -0.84200
O55         O  0.10970529  0.45435239  0.10511852    -0.81300
C56         C  0.10575743  0.49528209  0.12842494     0.99200
O57         O  0.13540256  0.50820575  0.16213922    -0.81300
O58         O  0.22873955  0.54798353  0.13514990    -0.83900
C59         C  0.23242087  0.55362097  0.08922726     1.03700
O60         O  0.22085631  0.51976927  0.06136270    -0.76800
O61         O  0.18869422  0.44046675  0.02538409    -0.76900
C62         C  0.16191638  0.40362652  0.02564339     1.03700
Cr63       Cr  0.15777556  0.40233851  0.12564159     1.93700
Cr64       Cr  0.20491817  0.48860107  0.17525379     1.93200
Cr65       Cr  0.24119610  0.45329239  0.07568111     1.39100
O66         O  0.20171546  0.44867330  0.12550921    -1.22000
O67         O  0.95850364  0.39454074  0.89330215    -0.84200
O68         O  0.87587390  0.43901297  0.84138436    -0.81300
C69         C  0.90237695  0.47526984  0.84353709     0.99200
O70         O  0.93816357  0.47588228  0.81567115    -0.81300
O71         O  0.01684870  0.44110146  0.78450505    -0.84000
C72         C  0.05112999  0.41480613  0.77041464     1.03800
O73         O  0.04843132  0.36822433  0.77394648    -0.76700
O74         O  0.01035785  0.33631191  0.86541530    -0.76900
C75         C  0.99947040  0.37117541  0.89504546     1.03700
O76         O  0.91742651  0.30685965  0.87093453    -0.84200
O77         O  0.85784909  0.35427816  0.79638763    -0.81300
C78         C  0.85367902  0.37866420  0.75645920     0.99200
O79         O  0.88304856  0.41290370  0.74373660    -0.81300
O80         O  0.97721220  0.38841475  0.70315705    -0.83900
C81         C  0.98286808  0.34251952  0.69579424     1.03700
O82         O  0.97335686  0.31251720  0.72862282    -0.76800
O83         O  0.93854416  0.27393242  0.80540577    -0.76900
C84         C  0.90987637  0.27434784  0.84067553     1.03700
Cr85       Cr  0.90532959  0.37365625  0.84780521     1.93700
Cr86       Cr  0.95204410  0.42628981  0.76330027     1.93200
Cr87       Cr  0.99067096  0.32563251  0.79561924     1.39100
O88         O  0.94944784  0.37507765  0.80131054    -1.22000
O89         O  0.79870809  0.85181561  0.35545806    -0.84200
O90         O  0.87463822  0.91165195  0.31482347    -0.81300
C91         C  0.84575666  0.90806719  0.28060101     0.99200
O92         O  0.81022649  0.93762876  0.28111876    -0.81300
O93         O  0.73674673  0.99015173  0.31860160    -0.84000
C94         C  0.69909206  0.97650197  0.34026010     1.03800
O95         O  0.70054787  0.95365807  0.38077639    -0.76700
O96         O  0.74994661  0.87087174  0.41734895    -0.76900
C97         C  0.75975078  0.84481651  0.38014532     1.03700
O98         O  0.83749103  0.87416555  0.44601473    -0.84200
O99         O  0.89595301  0.95011093  0.40474476    -0.81300
C100        C  0.90282250  0.98947709  0.38047165     0.99200
O101        O  0.87698427  0.99987958  0.34336165    -0.81300
O102        O  0.79419592  0.04847651  0.37883427    -0.83900
C103        C  0.77165486  0.04992363  0.41942232     1.03700
O104        O  0.75785538  0.01199205  0.44076526    -0.76800
O105        O  0.81086837  0.93919710  0.47875296    -0.76900
C106        C  0.84122635  0.90434934  0.47953482     1.03700
Cr107      Cr  0.84900042  0.89945315  0.38018219     1.93700
Cr108      Cr  0.80529603  0.99054370  0.33355783     1.93200
Cr109      Cr  0.75817341  0.94310526  0.42630971     1.39100
O110        O  0.80295683  0.94556210  0.37998761    -1.22000
O111        O  0.04918270  0.90680492  0.61166382    -0.84200
O112        O  0.13224184  0.94295243  0.66894380    -0.81300
C113        C  0.10738969  0.98077953  0.66649299     0.99200
O114        O  0.07201972  0.98351563  0.69493279    -0.81300
O115        O  0.99172046  0.95533007  0.72838246    -0.84000
C116        C  0.95410353  0.93071986  0.73319120     1.03800
O117        O  0.95406848  0.88446490  0.72570716    -0.76700
O118        O  0.99393885  0.85134479  0.63606271    -0.76900
C119        C  0.00758522  0.88553288  0.60727703     1.03700
O120        O  0.08387652  0.81599040  0.63167559    -0.84200
O121        O  0.14517614  0.85421938  0.71045041    -0.81300
C122        C  0.15081844  0.87687072  0.75120096     0.99200
O123        O  0.12359155  0.91296055  0.76433943    -0.81300
O124        O  0.02860526  0.89327229  0.80369227    -0.83900
C125        C  0.01701224  0.84822909  0.80793208     1.03700
O126        O  0.02116933  0.81952000  0.77293787    -0.76800
O127        O  0.05909070  0.78211565  0.69566762    -0.76900
C128        C  0.08651539  0.78039248  0.65931993     1.03700
Cr129      Cr  0.09958048  0.88023279  0.65871939     1.93700
Cr130      Cr  0.05553142  0.93258082  0.74567824     1.93200
Cr131      Cr  0.00970961  0.83749891  0.70599189     1.39100
O132        O  0.05434255  0.88353445  0.70430493    -1.22000
O133        O  0.35699168  0.79457846  0.86320577    -0.84200
O134        O  0.31406192  0.87394261  0.92059222    -0.81300
C135        C  0.27952864  0.84578242  0.91465237     0.99200
O136        O  0.27875192  0.80951711  0.94244946    -0.81300
O137        O  0.31264039  0.73124572  0.98072319    -0.84000
C138        C  0.34019575  0.69467863  0.98198523     1.03800
O139        O  0.38603360  0.69865925  0.97488423    -0.76700
O140        O  0.41657883  0.74263534  0.88666286    -0.76900
C141        C  0.38113228  0.75420367  0.85844462     1.03700
O142        O  0.44447553  0.83363147  0.88421545    -0.83000
O143        O  0.40136148  0.89190943  0.96302117    -0.81300
C144        C  0.37693497  0.89606176  0.00285774     0.99200
O145        O  0.34124692  0.86792863  0.01341433    -0.81300
O146        O  0.36893789  0.77595316  0.05506786    -0.83900
C147        C  0.41448303  0.76713486  0.05982900     1.03700
O148        O  0.44289774  0.77018583  0.02451682    -0.76800
O149        O  0.47879444  0.81154582  0.94882858    -0.76900
C150        C  0.47914692  0.83869959  0.91223742     1.03700
Cr151      Cr  0.37924028  0.84587624  0.91049953     1.93700
Cr152      Cr  0.32879469  0.79782519  0.99570689     1.93200
Cr153      Cr  0.42779510  0.75818904  0.95726136     1.39100
O154        O  0.37853157  0.79975314  0.95540104    -1.22000
O155        O  0.38888106  0.54298890  0.60673487    -0.84200
O156        O  0.33366742  0.62510054  0.56205760    -0.81300
C157        C  0.33827190  0.59722942  0.52695220     0.99200
O158        O  0.31055697  0.56118948  0.52652853    -0.81300
O159        O  0.27683905  0.48242647  0.56258975    -0.84000
C160        C  0.26502760  0.44860593  0.59059671     1.03800
O161        O  0.26765551  0.45470531  0.63664608    -0.76700
O162        O  0.36084097  0.49205500  0.66533056    -0.76900
C163        C  0.39085510  0.50222827  0.63085205     1.03700
O164        O  0.37030076  0.58739658  0.69220875    -0.84200
O165        O  0.28976438  0.64473491  0.64827679    -0.81300
C166        C  0.24909163  0.64792835  0.62476483     0.99200
O167        O  0.23837613  0.61903591  0.58954684    -0.81300
O168        O  0.19885301  0.52627565  0.61680057    -0.83900
C169        C  0.19378403  0.52305347  0.66276588     1.03700
O170        O  0.22677799  0.53690310  0.69014029    -0.76800
O171        O  0.30541262  0.56706652  0.72724626    -0.76900
C172        C  0.34277522  0.59295444  0.72732776     1.03700
Cr173      Cr  0.34283302  0.59739501  0.62717971     1.93700
Cr174      Cr  0.25799333  0.54921473  0.57689092     1.93200
Cr175      Cr  0.29195881  0.51414373  0.67699061     1.39100
O176        O  0.29739141  0.55278929  0.62678249    -1.22000
O177        O  0.54388785  0.60072490  0.39641374    -0.84200
O178        O  0.62478897  0.55580643  0.34111147    -0.81300
C179        C  0.59671684  0.52112246  0.34688840     0.99200
O180        O  0.56115452  0.52039429  0.31872637    -0.81300
O181        O  0.48348717  0.55729752  0.28528571    -0.84000
C182        C  0.45010524  0.58485426  0.27125291     1.03800
O183        O  0.45427303  0.63125778  0.27564888    -0.76700
O184        O  0.49194919  0.65935353  0.36894381    -0.76900
C185        C  0.50318122  0.62474536  0.39877291     1.03700
O186        O  0.58583656  0.68715127  0.37687742    -0.84200
O187        O  0.64402232  0.64261416  0.29790273    -0.81300
C188        C  0.64749412  0.61881109  0.25742366     0.99200
O189        O  0.61898799  0.58331132  0.24640170    -0.81300
O190        O  0.52655700  0.61133000  0.20611912    -0.83900
C191        C  0.52290377  0.65768954  0.19994082     1.03700
O192        O  0.53243574  0.68623309  0.23393272    -0.76800
O193        O  0.56498975  0.72264376  0.31247083    -0.76900
C194        C  0.59205922  0.72187838  0.34886717     1.03700
Cr195      Cr  0.59714335  0.62156742  0.35038808     1.93700
Cr196      Cr  0.54938010  0.57103576  0.26576915     1.93200
Cr197      Cr  0.51268278  0.67182338  0.29984455     1.39100
O198        O  0.55261775  0.62154780  0.30469225    -1.22000
O199        O  0.59618276  0.38878922  0.55321364    -0.84200
O200        O  0.54816951  0.32484211  0.62524605    -0.81300
C201        C  0.51579222  0.33353565  0.59527975     0.99200
O202        O  0.51911080  0.31014545  0.55651417    -0.81300
O203        O  0.56267905  0.28536843  0.48046372    -0.84000
C204        C  0.59204428  0.27241419  0.44869824     1.03800
O205        O  0.63756194  0.27619368  0.45636927    -0.76700
O206        O  0.65855541  0.36756716  0.50324282    -0.76900
C207        C  0.62173707  0.39481814  0.51411419     1.03700
O208        O  0.67934914  0.36872176  0.60190379    -0.84200
O209        O  0.63452964  0.28111421  0.64656451    -0.81300
C210        C  0.61205096  0.23961656  0.64366892     0.99200
O211        O  0.57835967  0.23202853  0.61216310    -0.81300
O212        O  0.61492929  0.20114398  0.52003797    -0.83900
C213        C  0.66129125  0.19562330  0.51964125     1.03700
O214        O  0.68839961  0.22927308  0.53375327    -0.76800
O215        O  0.71940300  0.30833776  0.57387808    -0.76900
C216        C  0.71668141  0.34315602  0.60317132     1.03700
Cr217      Cr  0.61501580  0.33833812  0.60389796     1.93700
Cr218      Cr  0.57135325  0.25840960  0.54432955     1.93200
Cr219      Cr  0.67263376  0.29704541  0.51883386     1.39100
O220        O  0.62028869  0.29703680  0.55559587    -1.22000
O221        O  0.69854883  0.14670462  0.83675767    -0.84200
O222        O  0.62843213  0.07869798  0.80159618    -0.81300
C223        C  0.65819948  0.07553286  0.76748952     0.99200
O224        O  0.69482674  0.04771190  0.77334734    -0.81300
O225        O  0.76851661  0.00230706  0.82200524    -0.84000
C226        C  0.80219897  0.03204076  0.82907195     1.03800
O227        O  0.79906486  0.06566821  0.86111595    -0.76700
O228        O  0.74375550  0.14019365  0.90226376    -0.76900
C229        C  0.73593970  0.15943137  0.86119568     1.03700
O230        O  0.66060345  0.12718506  0.93081583    -0.84200
O231        O  0.60587846  0.04729462  0.89564229    -0.81300
C232        C  0.60126668  0.00577989  0.87476505     0.99200
O233        O  0.62830558  0.99407079  0.83925048    -0.81300
O234        O  0.70893803  0.95564511  0.88927002    -0.83900
C235        C  0.74278176  0.95995950  0.92070920     1.03700
O236        O  0.76163175  0.00060603  0.92972052    -0.76800
O237        O  0.69648687  0.06831460  0.96810304    -0.76900
C238        C  0.66163928  0.09910682  0.96657461     1.03700
Cr239      Cr  0.65092798  0.09805903  0.86648892     1.93700
Cr240      Cr  0.69952017  0.00354169  0.83333312     1.93200
Cr241      Cr  0.74680752  0.06825628  0.91308050     1.39100
O242        O  0.69968102  0.05557308  0.87121527    -1.22000
O243        O  0.89320354  0.60886399  0.04352891    -0.84200
O244        O  0.93539143  0.65961412  0.12751154    -0.81300
C245        C  0.97143965  0.65665607  0.10064207     0.99200
O246        O  0.97267727  0.68639482  0.06608701    -0.81300
O247        O  0.94014546  0.72961874  0.98946236    -0.84000
C248        C  0.91286303  0.73975877  0.95454747     1.03800
O249        O  0.86667367  0.73462133  0.95865518    -0.76700
O250        O  0.83647821  0.63989888  0.99226831    -0.76900
C251        C  0.86970163  0.60822628  0.00298470     1.03700
O252        O  0.80608344  0.62736954  0.08367662    -0.84200
O253        O  0.84835906  0.70251450  0.14705371    -0.81300
C254        C  0.87259429  0.74215549  0.15381242     0.99200
O255        O  0.90880662  0.75441512  0.12692406    -0.81300
O256        O  0.88348066  0.80282189  0.03818470    -0.83900
C257        C  0.83767042  0.80933285  0.03247116     1.03700
O258        O  0.80923571  0.77428901  0.03715001    -0.76800
O259        O  0.77228441  0.69425946  0.06635932    -0.76900
C260        C  0.77164983  0.65573243  0.09096437     1.03700
Cr261      Cr  0.87099538  0.65275516  0.09784610     1.93700
Cr262      Cr  0.92300553  0.74107932  0.05664680     1.93200
Cr263      Cr  0.82428680  0.70878617  0.01537777     1.39100
O264        O  0.87303690  0.70138915  0.05573826    -1.22000
C265        C  0.84146698  0.88265325  0.97794366     0.24700
C266        C  0.81543700  0.85465483  0.01186886    -0.23400
C267        C  0.76409051  0.86137158  0.01488882     0.19600
C268        C  0.73931392  0.89264797  0.98259621     0.24600
C269        C  0.76526949  0.91859364  0.94726955    -0.23300
C270        C  0.81666385  0.91413510  0.94604224     0.19600
F271        F  0.84302582  0.94077193  0.91365803    -0.13300
F272        F  0.89060405  0.87760868  0.97364102    -0.15700
F273        F  0.69027603  0.89863991  0.98679397    -0.15700
F274        F  0.73755228  0.83631353  0.04836252    -0.13300
C275        C  0.58961520  0.16168569  0.68642147     0.24700
C276        C  0.62521789  0.19703740  0.67517575    -0.23400
C277        C  0.67404529  0.18687225  0.68771659     0.19600
C278        C  0.68657227  0.14340850  0.71267825     0.24600
C279        C  0.65043953  0.10955423  0.72605286    -0.23300
C280        C  0.60212546  0.11864352  0.71125927     0.19600
F281        F  0.56624782  0.08673820  0.72342107    -0.13300
F282        F  0.54204547  0.16936348  0.67469016    -0.15700
F283        F  0.73350891  0.13585123  0.72614341    -0.15700
F284        F  0.70971836  0.21870322  0.67533955    -0.13300
C285        C  0.64379077  0.46868950  0.46658838     0.24700
C286        C  0.60932394  0.43262786  0.47758292    -0.23400
C287        C  0.57105779  0.42443445  0.44458269     0.19600
C288        C  0.56712902  0.45214567  0.40150947     0.24600
C289        C  0.60201596  0.48822563  0.39020064    -0.23300
C290        C  0.64019882  0.49624650  0.42375759     0.19600
F291        F  0.67485925  0.53051292  0.41508960    -0.13300
F292        F  0.68243266  0.47576164  0.49655399    -0.15700
F293        F  0.52984465  0.44281408  0.37052337    -0.15700
F294        F  0.53942741  0.38720149  0.45235829    -0.13300
C295        C  0.67994253  0.67623416  0.19418635     0.24700
C296        C  0.68400304  0.63179526  0.22001869    -0.23400
C297        C  0.71516910  0.59500789  0.20207207     0.19600
C298        C  0.74207188  0.60234254  0.15945490     0.24600
C299        C  0.73802803  0.64670425  0.13288307    -0.23300
C300        C  0.70642212  0.68359755  0.15085911     0.19600
F301        F  0.70082961  0.72660711  0.12648574    -0.13300
F302        F  0.64828962  0.71148655  0.20950247    -0.15700
F303        F  0.77202658  0.56545073  0.14424097    -0.15700
F304        F  0.71873785  0.55120136  0.22549084    -0.13300
C305        C  0.43293422  0.44479269  0.57238787     0.24700
C306        C  0.42730909  0.46339203  0.61979550    -0.23400
C307        C  0.44886615  0.43767964  0.65867565     0.19600
C308        C  0.47563608  0.39464524  0.65060072     0.24600
C309        C  0.48135253  0.37546655  0.60331169    -0.23300
C310        C  0.45961034  0.40115329  0.56416000     0.19600
F311        F  0.46456755  0.38453735  0.51790009    -0.13300
F312        F  0.41058887  0.46747384  0.53441898    -0.15700
F313        F  0.49593682  0.37160918  0.68953528    -0.15700
F314        F  0.44324653  0.45393570  0.70508939    -0.13300
C315        C  0.40786058  0.64700597  0.49464997     0.24700
C316        C  0.37963016  0.60392781  0.49224754    -0.23400
C317        C  0.39534470  0.56583446  0.46099847     0.19600
C318        C  0.43831214  0.57074179  0.43333139     0.24600
C319        C  0.46609254  0.61382172  0.43614287    -0.23300
C320        C  0.45029526  0.65180837  0.46687357     0.19600
F321        F  0.47553963  0.69444578  0.46899129    -0.13300
F322        F  0.39423928  0.68512969  0.52359272    -0.15700
F323        F  0.45142833  0.53451088  0.40191005    -0.15700
F324        F  0.36917619  0.52395174  0.45700312    -0.13300
C325        C  0.48537621  0.75882217  0.11512846     0.24700
C326        C  0.43704243  0.74571403  0.10392780    -0.23400
C327        C  0.41954682  0.70080356  0.12154701     0.19600
C328        C  0.45073508  0.66787679  0.14598650     0.24600
C329        C  0.49880115  0.68116958  0.15766741    -0.23300
C330        C  0.51552376  0.72737603  0.14214676     0.19600
F331        F  0.56104343  0.74250568  0.15411236    -0.13300
F332        F  0.50389751  0.80176022  0.09839736    -0.15700
F333        F  0.43322106  0.62373794  0.15992097    -0.15700
F334        F  0.37252325  0.68817055  0.11371467    -0.13300
C335        C  0.54166405  0.90056114  0.94174073     0.24700
C336        C  0.51323429  0.88024808  0.90411571    -0.23400
C337        C  0.51195260  0.90454430  0.85878703     0.19600
C338        C  0.53677767  0.94829446  0.85158959     0.24600
C339        C  0.56474543  0.96893552  0.88888693    -0.23300
C340        C  0.56758370  0.94443620  0.93396413     0.19600
F341        F  0.59769741  0.96131379  0.96925274    -0.13300
F342        F  0.54472033  0.87798004  0.98567249    -0.15700
F343        F  0.53538681  0.96956622  0.80686924    -0.15700
F344        F  0.48698879  0.88561201  0.82058726    -0.13300
C345        C  0.32254346  0.69627939  0.81942753     0.24700
C346        C  0.36891617  0.71788607  0.82058712    -0.23400
C347        C  0.40665941  0.69711033  0.79262669     0.19600
C348        C  0.39836253  0.65580520  0.76376895     0.24600
C349        C  0.35209824  0.63333966  0.76275836    -0.23300
C350        C  0.31424736  0.65416770  0.79107525     0.19600
F351        F  0.26918559  0.63399658  0.79130960    -0.13300
F352        F  0.28603220  0.71435730  0.84782638    -0.15700
F353        F  0.43613384  0.63754085  0.73712716    -0.15700
F354        F  0.45215813  0.71648954  0.79397023    -0.13300
C355        C  0.01510210  0.78755370  0.87504114     0.24700
C356        C  0.99269393  0.82719617  0.85115223    -0.23400
C357        C  0.94183176  0.83371728  0.85668402     0.19600
C358        C  0.91445275  0.80241302  0.88683478     0.24600
C359        C  0.93733873  0.76390140  0.91235969    -0.23300
C360        C  0.98810490  0.75660739  0.90539624     0.19600
F361        F  0.01197453  0.71932144  0.92830074    -0.13300
F362        F  0.06312321  0.77761232  0.86739898    -0.15700
F363        F  0.86578221  0.81047505  0.89178052    -0.15700
F364        F  0.91804864  0.86871167  0.83059375    -0.13300
C365        C  0.88950140  0.01146643  0.82334416     0.24700
C366        C  0.84560749  0.02149112  0.79975567    -0.23400
C367        C  0.83814097  0.00310748  0.75209835     0.19600
C368        C  0.87180203  0.97082615  0.73076982     0.24600
C369        C  0.91394342  0.95779998  0.75617989    -0.23300
C370        C  0.92349792  0.98010657  0.80162542     0.19600
F371        F  0.96576203  0.97058997  0.82562073    -0.13300
F372        F  0.89749799  0.02813993  0.86916918    -0.15700
F373        F  0.86317804  0.95235480  0.68577001    -0.15700
F374        F  0.79585145  0.01302910  0.72817361    -0.13300
C375        C  0.19153273  0.71308684  0.59862471     0.24700
C376        C  0.21142505  0.68523647  0.63674799    -0.23400
C377        C  0.18748310  0.68543974  0.68216936     0.19600
C378        C  0.14508505  0.71422657  0.68949043     0.24600
C379        C  0.12587522  0.74309225  0.65129247    -0.23300
C380        C  0.14963246  0.74159214  0.60568394     0.19600
F381        F  0.13222458  0.76778556  0.56730577    -0.13300
F382        F  0.21230900  0.71178336  0.55371957    -0.15700
F383        F  0.12320093  0.71404980  0.73384261    -0.15700
F384        F  0.20359924  0.65585093  0.71855417    -0.13300
C385        C  0.18293325  0.82221141  0.81705007     0.24700
C386        C  0.18932218  0.86281542  0.78615565    -0.23400
C387        C  0.22536639  0.89712747  0.79748444     0.19600
C388        C  0.25396621  0.89169599  0.83924371     0.24600
C389        C  0.24664941  0.85202556  0.87165897    -0.23300
C390        C  0.21127253  0.81677645  0.85943264     0.19600
F391        F  0.20359060  0.77739201  0.88865333    -0.13300
F392        F  0.14742274  0.78921764  0.80748808    -0.15700
F393        F  0.28867985  0.92588325  0.84788230    -0.15700
F394        F  0.23176816  0.93714370  0.76871879    -0.13300
C395        C  0.66127598  0.75221772  0.39976952     0.24700
C396        C  0.63500415  0.75447823  0.35569867    -0.23400
C397        C  0.65425461  0.78276941  0.31723227     0.19600
C398        C  0.69837406  0.80831604  0.32307109     0.24600
C399        C  0.72341779  0.80693706  0.36772362    -0.23300
C400        C  0.70452083  0.77820547  0.40565344     0.19600
F401        F  0.72723858  0.77683353  0.44952123    -0.13300
F402        F  0.64475058  0.72541462  0.43801795    -0.15700
F403        F  0.71497994  0.83672448  0.28612493    -0.15700
F404        F  0.63025426  0.78618430  0.27422266    -0.13300
C405        C  0.89727669  0.79178951  0.22410281     0.24700
C406        C  0.86009952  0.77725803  0.19260315    -0.23400
C407        C  0.81765254  0.80644234  0.18895768     0.19600
C408        C  0.81309372  0.85016018  0.21597957     0.24600
C409        C  0.85095746  0.86536737  0.24692084    -0.23300
C410        C  0.89324588  0.83529692  0.25047322     0.19600
F411        F  0.93162598  0.84840921  0.27863583    -0.13300
F412        F  0.93908138  0.76480549  0.22746010    -0.15700
F413        F  0.77209130  0.87796089  0.21096338    -0.15700
F414        F  0.78222301  0.79425915  0.15685973    -0.13300
C415        C  0.89429914  0.93771248  0.54794598     0.24700
C416        C  0.88504172  0.90190773  0.51217012    -0.23400
C417        C  0.92100328  0.86505353  0.50431167     0.19600
C418        C  0.96392365  0.86355820  0.53178413     0.24600
C419        C  0.97233747  0.89818494  0.56841118    -0.23300
C420        C  0.93719960  0.93540187  0.57618411     0.19600
F421        F  0.94309109  0.96777459  0.61317598    -0.13300
F422        F  0.86136750  0.97413975  0.55658240    -0.15700
F423        F  0.99633729  0.82631598  0.52437097    -0.15700
F424        F  0.91458030  0.82938679  0.47045869    -0.13300
C425        C  0.72217286  0.12747511  0.51964326     0.24700
C426        C  0.68653600  0.15478065  0.49464609    -0.23400
C427        C  0.68698521  0.15397982  0.44334822     0.19600
C428        C  0.72070849  0.12498135  0.41768669     0.24600
C429        C  0.75433469  0.09543724  0.44276210    -0.23300
C430        C  0.75542371  0.09787199  0.49406631     0.19600
F431        F  0.78692701  0.06893631  0.51948350    -0.13300
F432        F  0.72457625  0.12934616  0.56896224    -0.15700
F433        F  0.71803186  0.12300967  0.36838374    -0.15700
F434        F  0.65570586  0.18248491  0.41770014    -0.13300
C435        C  0.13756279  0.42772589  0.74412394     0.24700
C436        C  0.08829897  0.44012064  0.74132735    -0.23400
C437        C  0.07301389  0.47813763  0.70919883     0.19600
C438        C  0.10681412  0.50423355  0.68160637     0.24600
C439        C  0.15619627  0.49320203  0.68610926    -0.23300
C440        C  0.17140004  0.45458484  0.71736959     0.19600
F441        F  0.21940304  0.44312263  0.72242603    -0.13300
F442        F  0.15299741  0.39086548  0.77372880    -0.15700
F443        F  0.09159711  0.54162399  0.65252573    -0.15700
F444        F  0.02504587  0.49006614  0.70435128    -0.13300
C445        C  0.82461888  0.26174246  0.87225812     0.24700
C446        C  0.86341483  0.24580917  0.84197947    -0.23400
C447        C  0.85522222  0.20551501  0.81103890     0.19600
C448        C  0.81076326  0.17994069  0.81295027     0.24600
C449        C  0.77281684  0.19517618  0.84445873    -0.23300
C450        C  0.78009725  0.23698460  0.87310369     0.19600
F451        F  0.74489739  0.25190786  0.90476499    -0.13300
F452        F  0.82965340  0.30121959  0.90189058    -0.15700
F453        F  0.80657863  0.13790820  0.78701111    -0.15700
F454        F  0.89094730  0.18940491  0.78055717    -0.13300
C455        C  0.93395198  0.53529517  0.90489252     0.24700
C456        C  0.89425914  0.51197365  0.88233334    -0.23400
C457        C  0.84728534  0.51813145  0.90223110     0.19600
C458        C  0.84000456  0.54754218  0.94314113     0.24600
C459        C  0.87958544  0.57058861  0.96582852    -0.23300
C460        C  0.92669270  0.56401416  0.94666728     0.19600
F461        F  0.96529262  0.58698869  0.96716447    -0.13300
F462        F  0.97988888  0.52932516  0.88730541    -0.15700
F463        F  0.79397120  0.55383357  0.96058168    -0.15700
F464        F  0.80817141  0.49575676  0.88193505    -0.13300
C465        C  0.78511167  0.40569060  0.70463245     0.24700
C466        C  0.81485611  0.36745019  0.72190997    -0.23400
C467        C  0.81390901  0.32153041  0.69891413     0.19600
C468        C  0.78390132  0.31412354  0.65845082     0.24600
C469        C  0.75342417  0.35225145  0.64137130    -0.23300
C470        C  0.75414589  0.39806148  0.66526090     0.19600
F471        F  0.72541267  0.43592184  0.65009650    -0.13300
F472        F  0.78677683  0.45084893  0.72549664    -0.15700
F473        F  0.78453009  0.26965556  0.63627168    -0.15700
F474        F  0.84400579  0.28476470  0.71402096    -0.13300
C475        C  0.10633634  0.43248941  0.95723983     0.24700
C476        C  0.12059932  0.39605232  0.99100564    -0.23400
C477        C  0.09159790  0.35349443  0.99496984     0.19600
C478        C  0.05065184  0.34708799  0.96546519     0.24600
C479        C  0.03669022  0.38315236  0.93189149    -0.23300
C480        C  0.06494523  0.42588607  0.92775000     0.19600
F481        F  0.05398763  0.46003630  0.89341789    -0.13300
F482        F  0.13233450  0.47444873  0.95261392    -0.15700
F483        F  0.02495149  0.30481641  0.96892513    -0.15700
F484        F  0.10272306  0.31754505  0.02742721    -0.13300
C485        C  0.07017476  0.56040756  0.07544746     0.24700
C486        C  0.06674269  0.53077360  0.11712690    -0.23400
C487        C  0.03298813  0.54319856  0.15348785     0.19600
C488        C  0.00316574  0.58469341  0.14856024     0.24600
C489        C  0.00677980  0.61533424  0.10715828    -0.23300
C490        C  0.04054339  0.60242193  0.07042886     0.19600
F491        F  0.04502384  0.63034187  0.02978002    -0.13300
F492        F  0.10395595  0.54991967  0.04070966    -0.15700
F493        F  0.97104797  0.59498178  0.18493975    -0.15700
F494        F  0.02981524  0.51562402  0.19456825    -0.13300
C495        C  0.32853767  0.54950257  0.21705389     0.24700
C496        C  0.34263069  0.51030390  0.18592948    -0.23400
C497        C  0.39173621  0.49786093  0.18160300     0.19600
C498        C  0.42619777  0.52270335  0.20949008     0.24600
C499        C  0.41206329  0.56111064  0.24170597    -0.23300
C500        C  0.36307816  0.57499113  0.24433295     0.19600
F501        F  0.34842984  0.61153375  0.27471444    -0.13300
F502        F  0.28089302  0.56285872  0.22141592    -0.15700
F503        F  0.47378779  0.50926381  0.20470030    -0.15700
F504        F  0.40604254  0.46041863  0.15216351    -0.13300
C505        C  0.30963955  0.59745095  0.07126591     0.24700
C506        C  0.25861163  0.59439257  0.06566148    -0.23400
C507        C  0.23732262  0.61704045  0.02492918     0.19600
C508        C  0.26564307  0.64466784  0.99277026     0.24600
C509        C  0.31641425  0.64966430  0.99995653    -0.23300
C510        C  0.33837924  0.62315453  0.03772871     0.19600
F511        F  0.38748359  0.62438047  0.04386007    -0.13300
F512        F  0.33231436  0.57415851  0.10828462    -0.15700
F513        F  0.24305592  0.66858767  0.95560498    -0.15700
F514        F  0.18893917  0.61182994  0.01598851    -0.13300
C515        C  0.26132514  0.38861705  0.52318310     0.24700
C516        C  0.24058176  0.40686999  0.56644021    -0.23400
C517        C  0.19043304  0.39892384  0.57457095     0.19600
C518        C  0.16201881  0.37316520  0.54060205     0.24600
C519        C  0.18353677  0.35255858  0.49888262    -0.23300
C520        C  0.23332273  0.36222371  0.48986407     0.19600
F521        F  0.25537932  0.34477919  0.44898626    -0.13300
F522        F  0.30881747  0.39775671  0.51248260    -0.15700
F523        F  0.11367202  0.36736601  0.54912291    -0.15700
F524        F  0.16821491  0.41797071  0.61434178    -0.13300
C525        C  0.05962528  0.32633926  0.64993743     0.24700
C526        C  0.00850554  0.32161316  0.65312342    -0.23400
C527        C  0.98645361  0.28327443  0.62756091     0.19600
C528        C  0.01440899  0.25147001  0.59861705     0.24600
C529        C  0.06561235  0.25720171  0.59409298    -0.23300
C530        C  0.08793545  0.29402458  0.62158308     0.19600
F531        F  0.13705864  0.29967354  0.62018281    -0.13300
F532        F  0.08279534  0.36078497  0.67630506    -0.15700
F533        F  0.99102409  0.21502446  0.57456770    -0.15700
F534        F  0.93769638  0.27575221  0.63180132    -0.13300
C535        C  0.96495463  0.09817819  0.43826145     0.24700
C536        C  0.99931317  0.11032231  0.40188574    -0.23400
C537        C  0.00481587  0.07813124  0.36187444     0.19600
C538        C  0.97608086  0.03628726  0.35760736     0.24600
C539        C  0.94120839  0.02490311  0.39303791    -0.23300
C540        C  0.93605749  0.05586550  0.43374262     0.19600
F541        F  0.90125139  0.04659835  0.46770086    -0.13300
F542        F  0.95895488  0.12729467  0.47793227    -0.15700
F543        F  0.98112598  0.00743534  0.31759822    -0.15700
F544        F  0.03770566  0.08724148  0.32604784    -0.13300
C545        C  0.10521213  0.34184456  0.26002959     0.24700
C546        C  0.14998579  0.36704371  0.26017898    -0.23400
C547        C  0.18893220  0.34760200  0.28775995     0.19600
C548        C  0.18296831  0.30406238  0.31452522     0.24600
C549        C  0.13797586  0.27965848  0.31454694    -0.23300
C550        C  0.09942369  0.29878868  0.28677392     0.19600
F551        F  0.05539401  0.27625736  0.28664454    -0.13300
F552        F  0.06646238  0.35911517  0.23426955    -0.15700
F553        F  0.22023672  0.28720437  0.34249315    -0.15700
F554        F  0.23274063  0.37044160  0.28870403    -0.13300
C555        C  0.07814961  0.04646424  0.60845650     0.24700
C556        C  0.11609489  0.01619544  0.62629452    -0.23400
C557        C  0.16065712  0.01447187  0.60047831     0.19600
C558        C  0.16704130  0.04207189  0.55810998     0.24600
C559        C  0.12905230  0.07162799  0.54016349    -0.23300
C560        C  0.08468124  0.07395589  0.56573568     0.19600
F561        F  0.04841969  0.10445261  0.55038952    -0.13300
F562        F  0.03441294  0.04872041  0.63163493    -0.15700
F563        F  0.21068496  0.04030233  0.53464992    -0.15700
F564        F  0.19832718  0.98595366  0.61619403    -0.13300
C565        C  0.35125266  0.96428997  0.05661223     0.24700
C566        C  0.38868905  0.93333582  0.03967570    -0.23400
C567        C  0.43261190  0.93044369  0.06585186     0.19600
C568        C  0.43916464  0.95868109  0.10806816     0.24600
C569        C  0.40158072  0.99004109  0.12494360    -0.23300
C570        C  0.35759969  0.99249989  0.09842183     0.19600
F571        F  0.32031832  0.02225754  0.11288383    -0.13300
F572        F  0.30775098  0.96628867  0.03309175    -0.15700
F573        F  0.48232003  0.95551806  0.13207475    -0.15700
F574        F  0.46805132  0.89827097  0.05207990    -0.13300
C575        C  0.26744699  0.10898400  0.34235974     0.24700
C576        C  0.26868478  0.15279193  0.36981872    -0.23400
C577        C  0.29911061  0.19106569  0.35351949     0.19600
C578        C  0.32773109  0.18527734  0.31125108     0.24600
C579        C  0.32615695  0.14139426  0.28444082    -0.23300
C580        C  0.29563845  0.10359084  0.30032622     0.19600
F581        F  0.29444583  0.06037734  0.27572227    -0.13300
F582        F  0.23937684  0.07061002  0.35637624    -0.15700
F583        F  0.35893061  0.22139041  0.29803911    -0.15700
F584        F  0.30168868  0.23380643  0.37866619    -0.13300
C585        C  0.34764314  0.25594948  0.10048561     0.24700
C586        C  0.37773019  0.25973267  0.14205091    -0.23400
C587        C  0.36300373  0.29217519  0.17942303     0.19600
C588        C  0.31992184  0.32043489  0.17484535     0.24600
C589        C  0.29045863  0.31649150  0.13314526    -0.23300
C590        C  0.30494981  0.28411449  0.09610920     0.19600
F591        F  0.27803757  0.28058583  0.05482896    -0.13300
F592        F  0.35948219  0.22496704  0.06352988    -0.15700
F593        F  0.30820648  0.35335070  0.21011492    -0.15700
F594        F  0.38996542  0.29632593  0.22055656    -0.13300
C595        C  0.57300283  0.06977983  0.07029690     0.24700
C596        C  0.53570523  0.10452213  0.06172605    -0.23400
C597        C  0.53904364  0.13531371  0.02133486     0.19600
C598        C  0.57995877  0.13351897  0.99120655     0.24600
C599        C  0.61905282  0.10031339  0.00059789    -0.23300
C600        C  0.61418071  0.06723508  0.03964914     0.19600
F601        F  0.64952427  0.03334127  0.04888010    -0.13300
F602        F  0.57060584  0.04008274  0.10981140    -0.15700
F603        F  0.58127211  0.16551779  0.95330437    -0.15700
F604        F  0.50376059  0.16953355  0.01275326    -0.13300
C605        C  0.58365917  0.25088389  0.36079961     0.24700
C606        C  0.57142706  0.24298339  0.40929497    -0.23400
C607        C  0.53638524  0.20691446  0.42138725     0.19600
C608        C  0.51213628  0.18098756  0.38519050     0.24600
C609        C  0.52198631  0.19117886  0.33654046    -0.23300
C610        C  0.55883054  0.22549302  0.32451066     0.19600
F611        F  0.57101799  0.23428864  0.27738981    -0.13300
F612        F  0.61818168  0.28420562  0.34863983    -0.15700
F613        F  0.47777735  0.14759246  0.39758813    -0.15700
F614        F  0.52525287  0.19699479  0.46855849    -0.13300
C615        C  0.60993877  0.07179026  0.30424939     0.24700
C616        C  0.60240384  0.06032567  0.25489831    -0.23400
C617        C  0.61945093  0.01449096  0.23783092     0.19600
C618        C  0.64581011  0.98267665  0.26830110     0.24600
C619        C  0.65403045  0.99470353  0.31734160    -0.23300
C620        C  0.63438123  0.03890325  0.33528165     0.19600
F621        F  0.64165104  0.05168940  0.38243085    -0.13300
F622        F  0.59189060  0.11401200  0.32317497    -0.15700
F623        F  0.66556016  0.94099677  0.24933027    -0.15700
F624        F  0.60989283  0.00012934  0.19159243    -0.13300
loop_ 
_geom_bond_atom_site_label_1 
_geom_bond_atom_site_label_2 
_geom_bond_distance 
_geom_bond_site_symmetry_2 
_ccdc_geom_bond_type 
O1          Cr19   2.009       .  S
O1            C9   1.288       .  A
O2          Cr19   1.954       .  S
O2            C3   1.232       .  A
C3            O4   1.244       .  A
C3          C569   1.486   1_545  S
O4          Cr20   2.017       .  S
O5          Cr20   1.928       .  S
O5            C6   1.241       .  A
C6            O7   1.278       .  A
C6          C616   1.481       .  S
O7          Cr21   2.074       .  S
O8          Cr21   2.005       .  S
O8            C9   1.284       .  A
C9          C596   1.469       .  S
O10         Cr19   1.953       .  S
O10          C18   1.232       .  A
O11         Cr19   2.013       .  S
O11          C12   1.289       .  A
C12          O13   1.284       .  A
C12         C579   1.474       .  S
O13         Cr20   2.006       .  S
O14         Cr20   2.052       .  S
O14          C15   1.276       .  A
C15          O16   1.243       .  A
C15         C609   1.468       .  S
O16         Cr21   1.918       .  S
O17         Cr21   2.038       .  S
O17          C18   1.249       .  A
C18         C586   1.498       .  S
Cr19         O22   1.759       .  S
Cr20         O22   1.747       .  S
Cr21         O22   1.752       .  S
O23         Cr41   2.007       .  S
O23          C31   1.288       .  A
O24         Cr41   1.958       .  S
O24          C25   1.234       .  A
C25          O26   1.247       .  A
C25         C576   1.494       .  S
O26         Cr42   2.028       .  S
O27         Cr42   1.926       .  S
O27          C28   1.242       .  A
C28          O29   1.277       .  A
C28         C519   1.488       .  S
O29         Cr43   2.070       .  S
O30         Cr43   2.003       .  S
O30          C31   1.283       .  A
C31         C549   1.472       .  S
O32         Cr41   1.958       .  S
O32          C40   1.235       .  A
O33         Cr41   2.003       .  S
O33          C34   1.288       .  A
C34          O35   1.284       .  A
C34         C559   1.470       .  S
O35         Cr42   2.009       .  S
O36         Cr42   2.069       .  S
O36          C37   1.279       .  A
C37          O38   1.244       .  A
C37         C529   1.490       .  S
O38         Cr43   1.921       .  S
O39         Cr43   2.028       .  S
O39          C40   1.248       .  A
C40         C536   1.496   1_455  S
Cr41         O44   1.758       .  S
Cr42         O44   1.748       .  S
Cr43         O44   1.752       .  S
O45         Cr63   2.021       .  S
O45          C53   1.292       .  A
O46         Cr63   1.951       .  S
O46          C47   1.230       .  A
C47          O48   1.245       .  A
C47         C546   1.485       .  S
O48         Cr64   2.024       .  S
O49         Cr64   1.919       .  S
O49          C50   1.240       .  A
C50          O51   1.278       .  A
C50         C496   1.472       .  S
O51         Cr65   2.065       .  S
O52         Cr65   2.009       .  S
O52          C53   1.284       .  A
C53         C589   1.481       .  S
O54         Cr63   1.958       .  S
O54          C62   1.234       .  A
O55         Cr63   2.009       .  S
O55          C56   1.290       .  A
C56          O57   1.285       .  A
C56         C486   1.469       .  S
O57         Cr64   2.008       .  S
O58         Cr64   2.066       .  S
O58          C59   1.275       .  A
C59          O60   1.243       .  A
C59         C506   1.476       .  S
O60         Cr65   1.931       .  S
O61         Cr65   2.030       .  S
O61          C62   1.248       .  A
C62         C476   1.497   1_554  S
Cr63         O66   1.752       .  S
Cr64         O66   1.750       .  S
Cr65         O66   1.749       .  S
O67         Cr85   2.008       .  S
O67          C75   1.287       .  A
O68         Cr85   1.957       .  S
O68          C69   1.232       .  A
C69          O70   1.243       .  A
C69         C456   1.478       .  S
O70         Cr86   2.009       .  S
O71         Cr86   1.917   1_455  S
O71          C72   1.239       .  A
C72          O73   1.275       .  A
C72         C436   1.470       .  S
O73         Cr87   2.057   1_455  S
O74         Cr87   2.016   1_455  S
O74          C75   1.285   1_455  A
C75         C479   1.477   1_655  S
O76         Cr85   1.953       .  S
O76          C84   1.234       .  A
O77         Cr85   1.997       .  S
O77          C78   1.287       .  A
C78          O79   1.285       .  A
C78         C466   1.462       .  S
O79         Cr86   2.004       .  S
O80         Cr86   2.064       .  S
O80          C81   1.275       .  A
C81          O82   1.245       .  A
C81         C526   1.478   1_655  S
O82         Cr87   1.936       .  S
O83         Cr87   2.032       .  S
O83          C84   1.246       .  A
C84         C446   1.498       .  S
Cr85         O88   1.758       .  S
Cr86         O88   1.744       .  S
Cr87         O88   1.758       .  S
O89        Cr107   2.020       .  S
O89          C97   1.279       .  A
O90        Cr107   1.956       .  S
O90          C91   1.235       .  A
C91          O92   1.259       .  A
C91         C409   1.493       .  S
O92        Cr108   2.043       .  S
O93        Cr108   1.924       .  S
O93          C94   1.249       .  A
C94          O95   1.276       .  A
C94         C619   1.470       .  S
O95        Cr109   2.036       .  S
O96        Cr109   1.998       .  S
O96          C97   1.272       .  A
C97         C399   1.481       .  S
O98        Cr107   1.961       .  S
O98         C106   1.240       .  A
O99        Cr107   2.013       .  S
O99         C100   1.278       .  A
C100        O101   1.273       .  A
C100        C539   1.475   1_565  S
O101       Cr108   2.002       .  S
O102       Cr108   2.031   1_545  S
O102        C103   1.274       .  A
C103        O104   1.249       .  A
C103        C429   1.471       .  S
O104       Cr109   1.919   1_545  S
O105       Cr109   2.045       .  S
O105        C106   1.258       .  A
C106        C416   1.501       .  S
Cr107       O110   1.774       .  S
Cr108       O110   1.770       .  S
Cr109       O110   1.768       .  S
O111       Cr129   2.024       .  S
O111        C119   1.289       .  A
O112       Cr129   1.956       .  S
O112        C113   1.233       .  A
C113        O114   1.246       .  A
C113        C556   1.486   1_565  S
O114       Cr130   2.020       .  S
O115       Cr130   1.912   1_655  S
O115        C116   1.241       .  A
C116        O117   1.277       .  A
C116        C369   1.463       .  S
O117       Cr131   2.055   1_655  S
O118       Cr131   2.005   1_655  S
O118        C119   1.279   1_655  A
C119        C419   1.480   1_455  S
O120       Cr129   1.954       .  S
O120        C128   1.233       .  A
O121       Cr129   2.019       .  S
O121        C122   1.289       .  A
C122        O123   1.281       .  A
C122        C386   1.477       .  S
O123       Cr130   2.004       .  S
O124       Cr130   2.059       .  S
O124        C125   1.275       .  A
C125        O126   1.245       .  A
C125        C356   1.478   1_455  S
O126       Cr131   1.929       .  S
O127       Cr131   2.039       .  S
O127        C128   1.250       .  A
C128        C379   1.492       .  S
Cr129       O132   1.763       .  S
Cr130       O132   1.756       .  S
Cr131       O132   1.760       .  S
O133       Cr151   2.009       .  S
O133        C141   1.286       .  A
O134       Cr151   1.957       .  S
O134        C135   1.234       .  A
C135        O136   1.249       .  A
C135        C389   1.496       .  S
O136       Cr152   2.031       .  S
O137       Cr152   1.916       .  S
O137        C138   1.246       .  A
C138        O139   1.277       .  A
C138        C509   1.478       .  S
O139       Cr153   2.050       .  S
O140       Cr153   2.011       .  S
O140        C141   1.282       .  A
C141        C346   1.477       .  S
O142       Cr151   1.953       .  S
O142        C150   1.233       .  A
O143       Cr151   2.011       .  S
O143        C144   1.287   1_556  A
C144        O145   1.280       .  A
C144        C566   1.472       .  S
O145       Cr152   2.003   1_554  S
O146       Cr152   2.055   1_554  S
O146        C147   1.276       .  A
C147        O148   1.246       .  A
C147        C326   1.479       .  S
O148       Cr153   1.924   1_554  S
O149       Cr153   2.038       .  S
O149        C150   1.248       .  A
C150        C336   1.490       .  S
Cr151       O154   1.761       .  S
Cr152       O154   1.756       .  S
Cr153       O154   1.756       .  S
O155       Cr173   2.019       .  S
O155        C163   1.294       .  A
O156       Cr173   1.958       .  S
O156        C157   1.234       .  A
C157        O158   1.246       .  A
C157        C316   1.492       .  S
O158       Cr174   2.024       .  S
O159       Cr174   1.928       .  S
O159        C160   1.245       .  A
C160        O161   1.279       .  A
C160        C516   1.483       .  S
O161       Cr175   2.078       .  S
O162       Cr175   2.002       .  S
O162        C163   1.285       .  A
C163        C306   1.481       .  S
O164       Cr173   1.959       .  S
O164        C172   1.232       .  A
O165       Cr173   2.021       .  S
O165        C166   1.292       .  A
C166        O167   1.284       .  A
C166        C376   1.480       .  S
O167       Cr174   2.003       .  S
O168       Cr174   2.057       .  S
O168        C169   1.274       .  A
C169        O170   1.239       .  A
C169        C439   1.464       .  S
O170       Cr175   1.920       .  S
O171       Cr175   2.034       .  S
O171        C172   1.248       .  A
C172        C349   1.494       .  S
Cr173       O176   1.747       .  S
Cr174       O176   1.750       .  S
Cr175       O176   1.742       .  S
O177       Cr195   2.014       .  S
O177        C185   1.291       .  A
O178       Cr195   1.956       .  S
O178        C179   1.233       .  A
C179        O180   1.246       .  A
C179        C289   1.496       .  S
O180       Cr196   2.029       .  S
O181       Cr196   1.923       .  S
O181        C182   1.241       .  A
C182        O183   1.276       .  A
C182        C499   1.477       .  S
O183       Cr197   2.064       .  S
O184       Cr197   2.010       .  S
O184        C185   1.285       .  A
C185        C319   1.475       .  S
O186       Cr195   1.952       .  S
O186        C194   1.232       .  A
O187       Cr195   2.016       .  S
O187        C188   1.291       .  A
C188        O189   1.285       .  A
C188        C296   1.478       .  S
O189       Cr196   2.010       .  S
O190       Cr196   2.067       .  S
O190        C191   1.277       .  A
C191        O192   1.245       .  A
C191        C329   1.480       .  S
O192       Cr197   1.930       .  S
O193       Cr197   2.032       .  S
O193        C194   1.247       .  A
C194        C396   1.493       .  S
Cr195       O198   1.753       .  S
Cr196       O198   1.747       .  S
Cr197       O198   1.752       .  S
O199       Cr217   2.021       .  S
O199        C207   1.292       .  A
O200       Cr217   1.960       .  S
O200        C201   1.233       .  A
C201        O202   1.245       .  A
C201        C309   1.492       .  S
O202       Cr218   2.029       .  S
O203       Cr218   1.917       .  S
O203        C204   1.236       .  A
C204        O205   1.271       .  A
C204        C606   1.465       .  S
O205       Cr219   2.052       .  S
O206       Cr219   2.003       .  S
O206        C207   1.283       .  A
C207        C286   1.476       .  S
O208       Cr217   1.955       .  S
O208        C216   1.234       .  A
O209       Cr217   2.019       .  S
O209        C210   1.295       .  A
C210        O211   1.285       .  A
C210        C276   1.489       .  S
O211       Cr218   2.006       .  S
O212       Cr218   2.068       .  S
O212        C213   1.279       .  A
C213        O214   1.247       .  A
C213        C426   1.475       .  S
O214       Cr219   1.937       .  S
O215       Cr219   2.010       .  S
O215        C216   1.246       .  A
C216        C469   1.479       .  S
Cr217       O220   1.746       .  S
Cr218       O220   1.740       .  S
Cr219       O220   1.753       .  S
O221       Cr239   2.037       .  S
O221        C229   1.277       .  A
O222       Cr239   1.962       .  S
O222        C223   1.244       .  A
C223        O224   1.264       .  A
C223        C279   1.482       .  S
O224       Cr240   2.044       .  S
O225       Cr240   1.916       .  S
O225        C226   1.249       .  A
C226        O227   1.274       .  A
C226        C366   1.462       .  S
O227       Cr241   2.021       .  S
O228       Cr241   1.983       .  S
O228        C229   1.262       .  A
C229        C449   1.482       .  S
O230       Cr239   1.958       .  S
O230        C238   1.245       .  A
O231       Cr239   2.025       .  S
O231        C232   1.276       .  A
C232        O233   1.264   1_545  A
C232        C339   1.475   1_545  S
O233       Cr240   1.978   1_565  S
O234       Cr240   2.031   1_565  S
O234        C235   1.275       .  A
C235        O236   1.251   1_565  A
C235        C269   1.474       .  S
O236       Cr241   1.939       .  S
O237       Cr241   2.045       .  S
O237        C238   1.267       .  A
C238        C599   1.494   1_556  S
Cr239       O242   1.766       .  S
Cr240       O242   1.759       .  S
Cr241       O242   1.768       .  S
O243       Cr261   2.004       .  S
O243        C251   1.288       .  A
O244       Cr261   1.956       .  S
O244        C245   1.234       .  A
C245        O246   1.248       .  A
C245        C489   1.490   1_655  S
O246       Cr262   2.027       .  S
O247       Cr262   1.929   1_556  S
O247        C248   1.247       .  A
C248        O249   1.280       .  A
C248        C359   1.493       .  S
O249       Cr263   2.069   1_556  S
O250       Cr263   2.007   1_556  S
O250        C251   1.284   1_556  A
C251        C459   1.471   1_554  S
O252       Cr261   1.954       .  S
O252        C260   1.231       .  A
O253       Cr261   2.009       .  S
O253        C254   1.286       .  A
C254        O255   1.282       .  A
C254        C406   1.471       .  S
O255       Cr262   2.002       .  S
O256       Cr262   2.057       .  S
O256        C257   1.277       .  A
C257        O258   1.244       .  A
C257        C266   1.485       .  S
O258       Cr263   1.924       .  S
O259       Cr263   2.037       .  S
O259        C260   1.248       .  A
C260        C299   1.495       .  S
Cr261       O264   1.760       .  S
Cr262       O264   1.752       .  S
Cr263       O264   1.749       .  S
C265        C266   1.402   1_556  A
C265        C270   1.399       .  A
C265        F272   1.358       .  S
C266        C267   1.420       .  A
C267        C268   1.402   1_554  A
C267        F274   1.359       .  S
C268        C269   1.397       .  A
C268        F273   1.357       .  S
C269        C270   1.413       .  A
C270        F271   1.358       .  S
C275        C276   1.410       .  A
C275        C280   1.397       .  A
C275        F282   1.358       .  S
C276        C277   1.408       .  A
C277        C278   1.408       .  A
C277        F284   1.355       .  S
C278        C279   1.407       .  A
C278        F283   1.354       .  S
C279        C280   1.406       .  A
C280        F281   1.359       .  S
C285        C286   1.401       .  A
C285        C290   1.399       .  A
C285        F292   1.358       .  S
C286        C287   1.407       .  A
C287        C288   1.407       .  A
C287        F294   1.356       .  S
C288        C289   1.411       .  A
C288        F293   1.357       .  S
C289        C290   1.415       .  A
C290        F291   1.358       .  S
C295        C296   1.407       .  A
C295        C300   1.408       .  A
C295        F302   1.356       .  S
C296        C297   1.401       .  A
C297        C298   1.398       .  A
C297        F304   1.358       .  S
C298        C299   1.415       .  A
C298        F303   1.358       .  S
C299        C300   1.411       .  A
C300        F301   1.357       .  S
C305        C306   1.406       .  A
C305        C310   1.409       .  A
C305        F312   1.357       .  S
C306        C307   1.406       .  A
C307        C308   1.396       .  A
C307        F314   1.359       .  S
C308        C309   1.409       .  A
C308        F313   1.358       .  S
C309        C310   1.413       .  A
C310        F311   1.356       .  S
C315        C316   1.413       .  A
C315        C320   1.397       .  A
C315        F322   1.358       .  S
C316        C317   1.412       .  A
C317        C318   1.408       .  A
C317        F324   1.357       .  S
C318        C319   1.406       .  A
C318        F323   1.358       .  S
C319        C320   1.402       .  A
C320        F321   1.358       .  S
C325        C326   1.410       .  A
C325        C330   1.399       .  A
C325        F332   1.358       .  S
C326        C327   1.403       .  A
C327        C328   1.406       .  A
C327        F334   1.355       .  S
C328        C329   1.407       .  A
C328        F333   1.353       .  S
C329        C330   1.409       .  A
C330        F331   1.358       .  S
C335        C336   1.412       .  A
C335        C340   1.411       .  A
C335        F342   1.357       .  S
C336        C337   1.410       .  A
C337        C338   1.391       .  A
C337        F344   1.359       .  S
C338        C339   1.402       .  A
C338        F343   1.359       .  S
C339        C340   1.409       .  A
C340        F341   1.358       .  S
C345        C346   1.406       .  A
C345        C350   1.408       .  A
C345        F352   1.357       .  S
C346        C347   1.403       .  A
C347        C348   1.398       .  A
C347        F354   1.359       .  S
C348        C349   1.413       .  A
C348        F353   1.358       .  S
C349        C350   1.411       .  A
C350        F351   1.356       .  S
C355        C356   1.402   1_455  A
C355        C360   1.400   1_455  A
C355        F362   1.358       .  S
C356        C357   1.412       .  A
C357        C358   1.408       .  A
C357        F364   1.356       .  S
C358        C359   1.406       .  A
C358        F363   1.357       .  S
C359        C360   1.417       .  A
C360        F361   1.359   1_655  S
C365        C366   1.393       .  A
C365        C370   1.393   1_545  A
C365        F372   1.358       .  S
C366        C367   1.418       .  A
C367        C368   1.398   1_545  A
C367        F374   1.359       .  S
C368        C369   1.394       .  A
C368        F373   1.357       .  S
C369        C370   1.415       .  A
C370        F371   1.357       .  S
C375        C376   1.402       .  A
C375        C380   1.395       .  A
C375        F382   1.358       .  S
C376        C377   1.409       .  A
C377        C378   1.411       .  A
C377        F384   1.356       .  S
C378        C379   1.411       .  A
C378        F383   1.357       .  S
C379        C380   1.412       .  A
C380        F381   1.358       .  S
C385        C386   1.406       .  A
C385        C390   1.408       .  A
C385        F392   1.357       .  S
C386        C387   1.401       .  A
C387        C388   1.398       .  A
C387        F394   1.358       .  S
C388        C389   1.415       .  A
C388        F393   1.358       .  S
C389        C390   1.412       .  A
C390        F391   1.357       .  S
C395        C396   1.411       .  A
C395        C400   1.395       .  A
C395        F402   1.358       .  S
C396        C397   1.412       .  A
C397        C398   1.410       .  A
C397        F404   1.357       .  S
C398        C399   1.408       .  A
C398        F403   1.356       .  S
C399        C400   1.404       .  A
C400        F401   1.358       .  S
C405        C406   1.398       .  A
C405        C410   1.393       .  A
C405        F412   1.360       .  S
C406        C407   1.408       .  A
C407        C408   1.409       .  A
C407        F414   1.357       .  S
C408        C409   1.408       .  A
C408        F413   1.357       .  S
C409        C410   1.418       .  A
C410        F411   1.358       .  S
C415        C416   1.410       .  A
C415        C420   1.411       .  A
C415        F422   1.357       .  S
C416        C417   1.418       .  A
C417        C418   1.400       .  A
C417        F424   1.359       .  S
C418        C419   1.401       .  A
C418        F423   1.359       .  S
C419        C420   1.409       .  A
C420        F421   1.357       .  S
C425        C426   1.404       .  A
C425        C430   1.401       .  A
C425        F432   1.358       .  S
C426        C427   1.410       .  A
C427        C428   1.401       .  A
C427        F434   1.351       .  S
C428        C429   1.401       .  A
C428        F433   1.358       .  S
C429        C430   1.412       .  A
C430        F431   1.359       .  S
C435        C436   1.392       .  A
C435        C440   1.394       .  A
C435        F442   1.357       .  S
C436        C437   1.422       .  A
C437        C438   1.395       .  A
C437        F444   1.359       .  S
C438        C439   1.390       .  A
C438        F443   1.358       .  S
C439        C440   1.418       .  A
C440        F441   1.357       .  S
C445        C446   1.415       .  A
C445        C450   1.399       .  A
C445        F452   1.358       .  S
C446        C447   1.409       .  A
C447        C448   1.410       .  A
C447        F454   1.358       .  S
C448        C449   1.412       .  A
C448        F453   1.355       .  S
C449        C450   1.401       .  A
C450        F451   1.358       .  S
C455        C456   1.409       .  A
C455        C460   1.403       .  A
C455        F462   1.356       .  S
C456        C457   1.407       .  A
C457        C458   1.394       .  A
C457        F464   1.359       .  S
C458        C459   1.405       .  A
C458        F463   1.358       .  S
C459        C460   1.404       .  A
C460        F461   1.357       .  S
C465        C466   1.401       .  A
C465        C470   1.393       .  A
C465        F472   1.359       .  S
C466        C467   1.403       .  A
C467        C468   1.400       .  A
C467        F474   1.358       .  S
C468        C469   1.409       .  A
C468        F473   1.357       .  S
C469        C470   1.411       .  A
C470        F471   1.359       .  S
C475        C476   1.412       .  A
C475        C480   1.408       .  A
C475        F482   1.358       .  S
C476        C477   1.415       .  A
C477        C478   1.398       .  A
C477        F484   1.357   1_556  S
C478        C479   1.399       .  A
C478        F483   1.358       .  S
C479        C480   1.408       .  A
C480        F481   1.357       .  S
C485        C486   1.404       .  A
C485        C490   1.405       .  A
C485        F492   1.358       .  S
C486        C487   1.400       .  A
C487        C488   1.396       .  A
C487        F494   1.359       .  S
C488        C489   1.414       .  A
C488        F493   1.359   1_455  S
C489        C490   1.411       .  A
C490        F491   1.357       .  S
C495        C496   1.419       .  A
C495        C500   1.398       .  A
C495        F502   1.358       .  S
C496        C497   1.390       .  A
C497        C498   1.397       .  A
C497        F504   1.357       .  S
C498        C499   1.422       .  A
C498        F503   1.358       .  S
C499        C500   1.394       .  A
C500        F501   1.358       .  S
C505        C506   1.411       .  A
C505        C510   1.402       .  A
C505        F512   1.349       .  S
C506        C507   1.404       .  A
C507        C508   1.398   1_554  A
C507        F514   1.358       .  S
C508        C509   1.414       .  A
C508        F513   1.359       .  S
C509        C510   1.399   1_556  A
C510        F511   1.358       .  S
C515        C516   1.406       .  A
C515        C520   1.399       .  A
C515        F522   1.359       .  S
C516        C517   1.411       .  A
C517        C518   1.408       .  A
C517        F524   1.352       .  S
C518        C519   1.404       .  A
C518        F523   1.356       .  S
C519        C520   1.413       .  A
C520        F521   1.359       .  S
C525        C526   1.411       .  A
C525        C530   1.404       .  A
C525        F532   1.350       .  S
C526        C527   1.401   1_455  A
C527        C528   1.399   1_655  A
C527        F534   1.359       .  S
C528        C529   1.419       .  A
C528        F533   1.359   1_455  S
C529        C530   1.402       .  A
C530        F531   1.357       .  S
C535        C536   1.413       .  A
C535        C540   1.410       .  A
C535        F542   1.358       .  S
C536        C537   1.414   1_655  A
C537        C538   1.396   1_455  A
C537        F544   1.358       .  S
C538        C539   1.399       .  A
C538        F543   1.358       .  S
C539        C540   1.408       .  A
C540        F541   1.358       .  S
C545        C546   1.411       .  A
C545        C550   1.394       .  A
C545        F552   1.358       .  S
C546        C547   1.410       .  A
C547        C548   1.406       .  A
C547        F554   1.357       .  S
C548        C549   1.406       .  A
C548        F553   1.357       .  S
C549        C550   1.402       .  A
C550        F551   1.358       .  S
C555        C556   1.411       .  A
C555        C560   1.404       .  A
C555        F562   1.357       .  S
C556        C557   1.412       .  A
C557        C558   1.397       .  A
C557        F564   1.358   1_545  S
C558        C559   1.401       .  A
C558        F563   1.358       .  S
C559        C560   1.404       .  A
C560        F561   1.358       .  S
C565        C566   1.402       .  A
C565        C570   1.395       .  A
C565        F572   1.358       .  S
C566        C567   1.405       .  A
C567        C568   1.405       .  A
C567        F574   1.357       .  S
C568        C569   1.411       .  A
C568        F573   1.358       .  S
C569        C570   1.411       .  A
C570        F571   1.358   1_565  S
C575        C576   1.413       .  A
C575        C580   1.396       .  A
C575        F582   1.358       .  S
C576        C577   1.413       .  A
C577        C578   1.409       .  A
C577        F584   1.357       .  S
C578        C579   1.406       .  A
C578        F583   1.358       .  S
C579        C580   1.401       .  A
C580        F581   1.359       .  S
C585        C586   1.415       .  A
C585        C590   1.400       .  A
C585        F592   1.358       .  S
C586        C587   1.412       .  A
C587        C588   1.410       .  A
C587        F594   1.357       .  S
C588        C589   1.408       .  A
C588        F593   1.357       .  S
C589        C590   1.402       .  A
C590        F591   1.358       .  S
C595        C596   1.408       .  A
C595        C600   1.408       .  A
C595        F602   1.355       .  S
C596        C597   1.394       .  A
C597        C598   1.393   1_554  A
C597        F604   1.359       .  S
C598        C599   1.421   1_556  A
C598        F603   1.358       .  S
C599        C600   1.408       .  A
C600        F601   1.357       .  S
C605        C606   1.391       .  A
C605        C610   1.396       .  A
C605        F612   1.358       .  S
C606        C607   1.418       .  A
C607        C608   1.393       .  A
C607        F614   1.359       .  S
C608        C609   1.392       .  A
C608        F613   1.358       .  S
C609        C610   1.420       .  A
C610        F611   1.358       .  S
C615        C616   1.408       .  A
C615        C620   1.404       .  A
C615        F622   1.352       .  S
C616        C617   1.410       .  A
C617        C618   1.402   1_545  A
C617        F624   1.357       .  S
C618        C619   1.406       .  A
C618        F623   1.358       .  S
C619        C620   1.405   1_565  A
C620        F621   1.357       .  S
