geometry optimzed in LAMMPS
_audit_creation_date              2020-11-30 
_audit_creation_method            'lammps2cif' 
_symmetry_space_group_name_H-M    'P1' 
_symmetry_Int_Tables_number       1 
_symmetry_cell_setting            triclinic 
loop_ 
_symmetry_equiv_pos_as_xyz 
  x,y,z 
_cell_length_a                    73.04047433 
_cell_length_b                    73.23544669212552 
_cell_length_c                    36.846509407655425 
_cell_angle_alpha                 89.63951861145587 
_cell_angle_beta                  90.48681988783709 
_cell_angle_gamma                 122.72951946452915 
loop_ 
_atom_site_label 
_atom_site_type_symbol 
_atom_site_fract_x 
_atom_site_fract_y 
_atom_site_fract_z 
_atom_site_charge 
In1        In  0.15755630  0.67941296  0.31619491     1.36900
C2          C  0.15429436  0.68298284  0.38749281     0.77300
O3          O  0.14097356  0.64350970  0.32472250    -0.61100
O4          O  0.17361909  0.66125194  0.30592988    -0.52100
C5          C  0.13352860  0.67630184  0.25927033     0.70000
O6          O  0.13107542  0.68221915  0.29003795    -0.46900
C7          C  0.19196168  0.71847425  0.30144276     0.74700
O8          O  0.13759507  0.67364547  0.36723259    -0.58800
O9          O  0.19241280  0.70148202  0.30078061    -0.48900
O10         O  0.17196623  0.69032043  0.37103021    -0.55200
C11         C  0.15729417  0.64307955  0.31508257     0.84800
O12         O  0.14714058  0.67082355  0.25867169    -0.57100
O13         O  0.17362649  0.71535448  0.30881126    -0.60400
In14       In  0.15088543  0.66871318  0.67276472     1.36900
C15         C  0.14291530  0.67035044  0.60221443     0.77300
O16         O  0.17296230  0.70497601  0.67279836    -0.61100
O17         O  0.18645519  0.68644098  0.68674625    -0.52100
C18         C  0.13209240  0.67295851  0.73125889     0.70000
O19         O  0.13014112  0.67900385  0.70012115    -0.46900
C20         C  0.14804700  0.63094313  0.67383100     0.74700
O21         O  0.12767144  0.66131912  0.62508005    -0.58800
O22         O  0.16550854  0.64902245  0.67884431    -0.48900
O23         O  0.16158277  0.67827917  0.61571549    -0.55200
C24         C  0.18973977  0.70503865  0.68156568     0.84800
O25         O  0.14203963  0.66331085  0.73161006    -0.57100
O26         O  0.13147297  0.63198347  0.66908883    -0.60400
In27       In  0.17191869  0.50080407  0.65848887     1.36900
C28         C  0.16456752  0.49431815  0.58752228     0.77300
O29         O  0.15341557  0.51716346  0.65560902    -0.61100
O30         O  0.18717028  0.53608547  0.66878227    -0.52100
C31         C  0.15329449  0.48091876  0.72072045     0.70000
O32         O  0.14523387  0.47222669  0.69022036    -0.46900
C33         C  0.20583168  0.49677676  0.66104766     0.74700
O34         O  0.14983364  0.48249176  0.61026442    -0.58800
O35         O  0.20765249  0.51484265  0.66464639    -0.48900
O36         O  0.18237033  0.50879559  0.60150988    -0.55200
C37         C  0.16980375  0.53560941  0.66357207     0.84800
O38         O  0.17027389  0.49965644  0.71882215    -0.57100
O39         O  0.18653570  0.48075650  0.65685856    -0.60400
In40       In  0.17554189  0.50958622  0.29995264     1.36900
C41         C  0.17448771  0.50438432  0.37160391     0.77300
O42         O  0.18925616  0.48932011  0.29319828    -0.61100
O43         O  0.20981017  0.52313641  0.28193103    -0.52100
C44         C  0.15104232  0.48785612  0.24264472     0.70000
O45         O  0.14973942  0.47835302  0.27221698    -0.46900
C46         C  0.17557794  0.54558366  0.29969592     0.74700
O47         O  0.15739109  0.49356850  0.35242817    -0.58800
O48         O  0.19168069  0.54502276  0.28898704    -0.48900
O49         O  0.19140470  0.51707400  0.35381406    -0.55200
C50         C  0.20777615  0.50488053  0.28364859     0.84800
O51         O  0.16326592  0.50821652  0.24387922    -0.57100
O52         O  0.15941946  0.52756346  0.31024077    -0.60400
In53       In  0.54094118  0.68866909  0.66175633     1.36900
C54         C  0.55737723  0.69536121  0.59501627     0.77300
O55         O  0.51925542  0.65224119  0.65994776    -0.61100
O56         O  0.50536036  0.67083983  0.64975791    -0.52100
C57         C  0.56126417  0.68822986  0.72201882     0.70000
O58         O  0.57070811  0.69451837  0.69181335    -0.46900
C59         C  0.53842237  0.72251760  0.67638086     0.74700
O60         O  0.55284902  0.67889586  0.61347648    -0.58800
O61         O  0.52171153  0.70364495  0.67272620    -0.48900
O62         O  0.55450484  0.70857485  0.61139475    -0.55200
C63         C  0.50232324  0.65223994  0.65266985     0.84800
O64         O  0.54124607  0.68103729  0.72078224    -0.57100
O65         O  0.55628048  0.72378898  0.67353863    -0.60400
In66       In  0.35249628  0.50023412  0.64585602     1.36900
C67         C  0.35091502  0.48745959  0.57701037     0.77300
O68         O  0.31663078  0.48591518  0.64969890    -0.61100
O69         O  0.33811770  0.52019321  0.65392539    -0.52100
C70         C  0.34883811  0.48152165  0.71035879     0.70000
O71         O  0.34072453  0.47033128  0.68181341    -0.46900
C72         C  0.39240424  0.53540565  0.64608887     0.74700
O73         O  0.35989262  0.48308831  0.60204935    -0.58800
O74         O  0.37562075  0.53615189  0.64239828    -0.48900
O75         O  0.34213453  0.49720975  0.58764855    -0.55200
C76         C  0.31869237  0.50406735  0.65383707     0.84800
O77         O  0.35917797  0.50167142  0.70508190    -0.57100
O78         O  0.38870843  0.51651233  0.64898204    -0.60400
In79       In  0.53795560  0.68558684  0.31610774     1.36900
C80         C  0.55198991  0.68532828  0.38324946     0.77300
O81         O  0.54985727  0.72086180  0.31355017    -0.61100
O82         O  0.51571741  0.69802719  0.31481101    -0.52100
C83         C  0.56074021  0.69242613  0.25631806     0.70000
O84         O  0.56920232  0.69505078  0.28737701    -0.46900
C85         C  0.50247343  0.64624664  0.30997458     0.74700
O86         O  0.54445953  0.66928555  0.36239586    -0.58800
O87         O  0.50194629  0.66260997  0.31879538    -0.48900
O88         O  0.55319638  0.70158893  0.36914840    -0.55200
C89         C  0.53109808  0.71776042  0.31357676     0.84800
O90         O  0.54096203  0.68608898  0.25647498    -0.57100
O91         O  0.52128092  0.65010177  0.30442541    -0.60400
In92       In  0.34773994  0.49941768  0.29436211     1.36900
C93         C  0.34095887  0.48389714  0.36241967     0.77300
O94         O  0.38444169  0.52018581  0.29406273    -0.61100
O95         O  0.36672396  0.53435941  0.30865728    -0.52100
C96         C  0.34523550  0.47759167  0.23429373     0.70000
O97         O  0.33969598  0.46872272  0.26515466    -0.46900
C98         C  0.31645440  0.50613057  0.27876867     0.74700
O99         O  0.35708779  0.48737108  0.34414551    -0.58800
O100        O  0.33625646  0.52131684  0.27917668    -0.48900
O101        O  0.32789900  0.48680738  0.34492256    -0.55200
C102        C  0.38506019  0.53709125  0.30345456     0.84800
O103        O  0.35336876  0.49773409  0.23480537    -0.57100
O104        O  0.31287112  0.48753181  0.28534628    -0.60400
In105      In  0.33750563  0.85725296  0.64895037     1.36900
C106        C  0.33480996  0.86367942  0.57807475     0.77300
O107        O  0.37397930  0.87217320  0.64504367    -0.61100
O108        O  0.35356139  0.83901517  0.65947453    -0.52100
C109        C  0.33858547  0.88071235  0.70498107     0.70000
O110        O  0.33346404  0.88327584  0.67342874    -0.46900
C111        C  0.29845160  0.82208357  0.66340466     0.74700
O112        O  0.34714900  0.87921365  0.59906393    -0.58800
O113        O  0.31558207  0.82181421  0.66256519    -0.48900
O114        O  0.32438483  0.84545256  0.59339942    -0.55200
C115        C  0.37270076  0.85485009  0.65407549     0.84800
O116        O  0.34461989  0.86758011  0.70679235    -0.57100
O117        O  0.30137327  0.84042653  0.65691429    -0.60400
In118      In  0.51687071  0.85322360  0.67239698     1.36900
C119        C  0.52541361  0.85635151  0.60130898     0.77300
O120        O  0.53366468  0.83558818  0.67874690    -0.61100
O121        O  0.49895882  0.81729659  0.68040842    -0.52100
C122        C  0.53591001  0.86985848  0.73636100     0.70000
O123        O  0.54641347  0.87680813  0.70688560    -0.46900
C124        C  0.48467163  0.85993368  0.66917200     0.74700
O125        O  0.53695184  0.87230973  0.62240850    -0.58800
O126        O  0.48200107  0.84213927  0.67933317    -0.48900
O127        O  0.51027043  0.83969508  0.61694758    -0.55200
C128        C  0.51620815  0.81716742  0.68156253     0.84800
O129        O  0.51587798  0.85597613  0.73226280    -0.57100
O130        O  0.50412415  0.87462695  0.66180926    -0.60400
In131      In  0.34742367  0.86323761  0.29499171     1.36900
C132        C  0.34640521  0.87386043  0.36416118     0.77300
O133        O  0.31100358  0.84316917  0.28999039    -0.61100
O134        O  0.32828988  0.82742912  0.28608226    -0.52100
C135        C  0.34620384  0.88344272  0.23499809     0.70000
O136        O  0.34195114  0.88744426  0.26593874    -0.46900
C137        C  0.38261278  0.86072354  0.29567828     0.74700
O138        O  0.36057320  0.88713598  0.34212295    -0.58800
O139        O  0.36340236  0.84439677  0.29417497    -0.48900
O140        O  0.33264314  0.85583632  0.35036221    -0.55200
C141        C  0.31006236  0.82555043  0.28613298     0.84800
O142        O  0.35228793  0.87033786  0.23547013    -0.57100
O143        O  0.38395696  0.87864693  0.29686453    -0.60400
In144      In  0.52852850  0.86157462  0.31360362     1.36900
C145        C  0.53633544  0.86865442  0.38495399     0.77300
O146        O  0.51446892  0.88229726  0.31504871    -0.61100
O147        O  0.49299807  0.84836964  0.30586328    -0.52100
C148        C  0.54591574  0.87695718  0.24810792     0.70000
O149        O  0.55678993  0.88538967  0.27707134    -0.46900
C150        C  0.53286483  0.82786384  0.31174573     0.74700
O151        O  0.54815357  0.88325129  0.36183323    -0.58800
O152        O  0.51442849  0.82562985  0.30982118    -0.48900
O153        O  0.52099982  0.85126889  0.37118971    -0.55200
C154        C  0.49513935  0.86662556  0.30926948     0.84800
O155        O  0.52649491  0.86160949  0.25325278    -0.57100
O156        O  0.54880838  0.84729463  0.31404901    -0.60400
In157      In  0.85401321  0.52098287  0.66329827     1.36900
C158        C  0.86251894  0.52841524  0.59265689     0.77300
O159        O  0.87248502  0.50438136  0.66164970    -0.61100
O160        O  0.83956136  0.48648374  0.67893745    -0.52100
C161        C  0.87351008  0.54485009  0.72210170     0.70000
O162        O  0.87787703  0.55306436  0.69063652    -0.46900
C163        C  0.81696392  0.51944031  0.66705710     0.74700
O164        O  0.87691678  0.53940033  0.61645249    -0.58800
O165        O  0.81778561  0.50269183  0.66811746    -0.48900
O166        O  0.84427773  0.51418689  0.60534758    -0.55200
C167        C  0.85643833  0.48641443  0.67245279     0.84800
O168        O  0.86032900  0.52460592  0.72273927    -0.57100
O169        O  0.83521156  0.53704511  0.66425012    -0.60400
In170      In  0.86667800  0.34816689  0.66564752     1.36900
C171        C  0.87443311  0.34821049  0.59498574     0.77300
O172        O  0.84425603  0.31184682  0.66865528    -0.61100
O173        O  0.83059383  0.33101115  0.67160639    -0.52100
C174        C  0.88558812  0.34375727  0.72443414     0.70000
O175        O  0.88752834  0.33785154  0.69333536    -0.46900
C176        C  0.87176531  0.38674656  0.67044508     0.74700
O177        O  0.88896515  0.35261845  0.61850872    -0.58800
O178        O  0.85438786  0.36922412  0.67855985    -0.48900
O179        O  0.85662063  0.34373434  0.60804136    -0.55200
C180        C  0.82726143  0.31224766  0.67123767     0.84800
O181        O  0.87516364  0.35292977  0.72469704    -0.57100
O182        O  0.88717223  0.38468267  0.66110977    -0.60400
In183      In  0.86025500  0.52147245  0.30437685     1.36900
C184        C  0.85962671  0.52276009  0.37610437     0.77300
O185        O  0.84493423  0.54044278  0.30482972    -0.61100
O186        O  0.82529454  0.50716171  0.28906173    -0.52100
C187        C  0.88015488  0.54557171  0.24661684     0.70000
O188        O  0.88595122  0.55330818  0.27839206    -0.46900
C189        C  0.86700631  0.48965853  0.29886765     0.74700
O190        O  0.87637879  0.53669127  0.35848792    -0.58800
O191        O  0.84919033  0.48752094  0.28988019    -0.48900
O192        O  0.84406436  0.50867307  0.35679954    -0.55200
C193        C  0.82655061  0.52488692  0.29430675     0.84800
O194        O  0.86582518  0.52555076  0.24540905    -0.57100
O195        O  0.88159073  0.50839563  0.30990305    -0.60400
In196      In  0.86158420  0.34225096  0.30660809     1.36900
C197        C  0.86409757  0.34265603  0.37880526     0.77300
O198        O  0.87704816  0.37838619  0.31036940    -0.61100
O199        O  0.84566678  0.35912771  0.28617174    -0.52100
C200        C  0.88648794  0.34315459  0.25355377     0.70000
O201        O  0.88741672  0.33687328  0.28516928    -0.46900
C202        C  0.82696639  0.30274442  0.29487971     0.74700
O203        O  0.88084350  0.34926143  0.35957468    -0.58800
O204        O  0.82653208  0.31968211  0.29227533    -0.48900
O205        O  0.84689143  0.33598458  0.36087341    -0.55200
C206        C  0.86103938  0.37781699  0.29561326     0.84800
O207        O  0.87417724  0.35015959  0.25051773    -0.57100
O208        O  0.84535265  0.30607038  0.30287304    -0.60400
In209      In  0.68205563  0.52254358  0.29323627     1.36900
C210        C  0.68743816  0.53150930  0.36414671     0.77300
O211        O  0.64584739  0.50344895  0.30153830    -0.61100
O212        O  0.66137552  0.48666311  0.28934094    -0.52100
C213        C  0.68457810  0.54750461  0.23802544     0.70000
O214        O  0.69386982  0.55525379  0.26809954    -0.46900
C215        C  0.71580213  0.52002752  0.27673430     0.74700
O216        O  0.67782217  0.53778855  0.34388235    -0.58800
O217        O  0.69645001  0.50447741  0.27140401    -0.48900
O218        O  0.69428551  0.52136198  0.34780621    -0.55200
C219        C  0.64394889  0.48540636  0.29695037     0.84800
O220        O  0.67266377  0.52710645  0.23740814    -0.57100
O221        O  0.71772620  0.53710983  0.28864493    -0.60400
In222      In  0.48728714  0.34219604  0.30636385     1.36900
C223        C  0.47450746  0.33647613  0.37596871     0.77300
O224        O  0.47371571  0.30695031  0.29649173    -0.61100
O225        O  0.50784384  0.32927385  0.29128648    -0.52100
C226        C  0.46680776  0.34106658  0.24476213     0.70000
O227        O  0.45644443  0.33049125  0.27263316    -0.46900
C228        C  0.52394603  0.38081890  0.31202247     0.74700
O229        O  0.47212963  0.34871930  0.35488658    -0.58800
O230        O  0.52346958  0.36339319  0.30944857    -0.48900
O231        O  0.48215728  0.32670759  0.36082909    -0.55200
C232        C  0.49201766  0.30975504  0.28988996     0.84800
O233        O  0.48701027  0.35313463  0.24970028    -0.57100
O234        O  0.50546953  0.37842057  0.31251917    -0.60400
In235      In  0.67947965  0.53148776  0.64989330     1.36900
C236        C  0.68133573  0.53917713  0.57865145     0.77300
O237        O  0.71570609  0.55000935  0.65288279    -0.61100
O238        O  0.69802689  0.51584132  0.66156792    -0.52100
C239        C  0.68322629  0.55414478  0.70859136     0.70000
O240        O  0.68603012  0.56213047  0.67703428    -0.46900
C241        C  0.63925102  0.49696377  0.65547678     0.74700
O242        O  0.67667984  0.54907534  0.60101376    -0.58800
O243        O  0.65579246  0.49570380  0.65726601    -0.48900
O244        O  0.68488109  0.52571875  0.59293464    -0.55200
C245        C  0.71638327  0.53344350  0.65949220     0.84800
O246        O  0.67814880  0.53474482  0.70949142    -0.57100
O247        O  0.64340096  0.51592454  0.65092513    -0.60400
In248      In  0.48571682  0.34843037  0.65921236     1.36900
C249        C  0.47229404  0.34664224  0.59037899     0.77300
O250        O  0.50935375  0.38453913  0.65762407    -0.61100
O251        O  0.52155061  0.36404841  0.65342875    -0.52100
C252        C  0.46828877  0.34895526  0.72260413     0.70000
O253        O  0.45672243  0.34047518  0.69450735    -0.46900
C254        C  0.48504481  0.31236961  0.67126540     0.74700
O255        O  0.47364155  0.36040620  0.61257894    -0.58800
O256        O  0.50236833  0.33094932  0.67075235    -0.48900
O257        O  0.47628795  0.33346519  0.60429257    -0.55200
C258        C  0.52582307  0.38316650  0.65504526     0.84800
O259        O  0.48836901  0.35847464  0.71708440    -0.57100
O260        O  0.46785339  0.31227979  0.66629981    -0.60400
In261      In  0.67768393  0.16113813  0.65541310     1.36900
C262        C  0.68182456  0.15498113  0.58494310     0.77300
O263        O  0.64124988  0.14331683  0.65053112    -0.61100
O264        O  0.65949967  0.17759125  0.65766343    -0.52100
C265        C  0.67584466  0.14317669  0.71991888     0.70000
O266        O  0.68138681  0.13779303  0.69139212    -0.46900
C267        C  0.71695155  0.19595286  0.66633354     0.74700
O268        O  0.67227596  0.13902598  0.60669168    -0.58800
O269        O  0.70013219  0.19677457  0.66401678    -0.48900
O270        O  0.68862104  0.17305052  0.59947738    -0.55200
C271        C  0.64097447  0.16033361  0.65420096     0.84800
O272        O  0.67012991  0.15639210  0.71452440    -0.57100
O273        O  0.71348973  0.17713427  0.66388632    -0.60400
In274      In  0.67195595  0.15768690  0.30019943     1.36900
C275        C  0.67366123  0.14687137  0.36960636     0.77300
O276        O  0.70839227  0.17765042  0.29481713    -0.61100
O277        O  0.69082731  0.19300009  0.28824413    -0.52100
C278        C  0.67003714  0.13787939  0.23782924     0.70000
O279        O  0.68017844  0.13749859  0.26541878    -0.46900
C280        C  0.63852796  0.16253904  0.30298873     0.74700
O281        O  0.66090646  0.13293867  0.34657852    -0.58800
O282        O  0.65782731  0.17797714  0.29730873    -0.48900
O283        O  0.68564963  0.16560334  0.35661151    -0.55200
C284        C  0.70910139  0.19504184  0.28899533     0.84800
O285        O  0.65950172  0.14658629  0.24338269    -0.57100
O286        O  0.63622621  0.14428878  0.30783451    -0.60400
In287      In  0.49634239  0.16803589  0.29963926     1.36900
C288        C  0.48917217  0.16331396  0.37039581     0.77300
O289        O  0.50937587  0.14683781  0.30724852    -0.61100
O290        O  0.53181960  0.18044511  0.29591948    -0.52100
C291        C  0.48054190  0.15083049  0.23500427     0.70000
O292        O  0.46930461  0.14257482  0.26354270    -0.46900
C293        C  0.49046641  0.20046177  0.29064563     0.74700
O294        O  0.47658353  0.14824539  0.34848809    -0.58800
O295        O  0.50919801  0.20330728  0.29031327    -0.48900
O296        O  0.50464135  0.18017772  0.35559429    -0.55200
C297        C  0.52899057  0.16209052  0.30265783     0.84800
O298        O  0.49959846  0.16695842  0.24035282    -0.57100
O299        O  0.47495694  0.18105123  0.29571432    -0.60400
In300      In  0.50957977  0.18334516  0.65678223     1.36900
C301        C  0.50337588  0.17983357  0.58504998     0.77300
O302        O  0.49160819  0.20015958  0.65998501    -0.61100
O303        O  0.52501282  0.21795028  0.67497320    -0.52100
C304        C  0.48596503  0.15975085  0.71306564     0.70000
O305        O  0.47785204  0.15718955  0.68161522    -0.46900
C306        C  0.54460539  0.18119046  0.66008633     0.74700
O307        O  0.49213183  0.16374927  0.60582609    -0.58800
O308        O  0.54524138  0.19860879  0.66443357    -0.48900
O309        O  0.51728078  0.19697187  0.60122885    -0.55200
C310        C  0.50784494  0.21795940  0.67076600     0.84800
O311        O  0.50616293  0.17343045  0.71486602    -0.57100
O312        O  0.52582151  0.16466279  0.65419493    -0.60400
In313      In  0.62047475  0.90313437  0.98884818     1.36900
C314        C  0.62880729  0.87184766  0.98863650     0.77300
O315        O  0.62532252  0.90675414  0.04915377    -0.61100
O316        O  0.59315080  0.89283214  0.02902184    -0.52100
C317        C  0.64211801  0.94617259  0.98641806     0.70000
O318        O  0.65214546  0.93644420  0.98763142    -0.46900
C319        C  0.60343719  0.89708564  0.92225618     0.74700
O320        O  0.64391030  0.89175818  0.99007536    -0.58800
O321        O  0.59203216  0.89206692  0.95068755    -0.48900
O322        O  0.60989005  0.86833924  0.98750054    -0.55200
C323        C  0.60559872  0.89902920  0.05652917     0.84800
O324        O  0.62166382  0.93378954  0.98635269    -0.57100
O325        O  0.62341289  0.90488285  0.92813883    -0.60400
In326      In  0.62210911  0.72238798  0.98950341     1.36900
C327        C  0.62388506  0.75977542  0.98481136     0.77300
O328        O  0.62394789  0.72134917  0.92883765    -0.61100
O329        O  0.59416077  0.69861467  0.95488875    -0.52100
C330        C  0.64709957  0.70632954  0.99649694     0.70000
O331        O  0.65527362  0.72604526  0.98768144    -0.46900
C332        C  0.60369764  0.71135444  0.05387714     0.74700
O333        O  0.64103424  0.75967917  0.99016745    -0.58800
O334        O  0.59346022  0.70259842  0.02480523    -0.48900
O335        O  0.60685515  0.74118318  0.98178659    -0.55200
C336        C  0.60426422  0.70597587  0.92539391     0.84800
O337        O  0.62682980  0.69565692  0.00121322    -0.57100
O338        O  0.62367258  0.72575881  0.05002654    -0.60400
In339      In  0.90095984  0.61439825  0.98392437     1.36900
C340        C  0.87047286  0.62400198  0.98150013     0.77300
O341        O  0.90018171  0.61371448  0.92276880    -0.61100
O342        O  0.88858229  0.58424490  0.95167083    -0.52100
C343        C  0.94428843  0.63817776  0.98020048     0.70000
O344        O  0.93383732  0.64626522  0.99137227    -0.46900
C345        C  0.89555826  0.59448550  0.04745630     0.74700
O346        O  0.89046842  0.63864711  0.97909416    -0.58800
O347        O  0.89028319  0.58485453  0.01738348    -0.48900
O348        O  0.86666738  0.60522090  0.98590964    -0.55200
C349        C  0.89234928  0.59354125  0.92122369     0.84800
O350        O  0.93251890  0.61856261  0.97115419    -0.57100
O351        O  0.90359640  0.61464265  0.04528105    -0.60400
In352      In  0.72080018  0.61684541  0.97492829     1.36900
C353        C  0.75776728  0.61762536  0.97354634     0.77300
O354        O  0.72347925  0.61596339  0.03582605    -0.61100
O355        O  0.69683593  0.58879723  0.00919117    -0.52100
C356        C  0.71137937  0.64717623  0.98021604     0.70000
O357        O  0.72978479  0.65175026  0.96934273    -0.46900
C358        C  0.70370231  0.59912235  0.91036557     0.74700
O359        O  0.75785801  0.63473966  0.97871774    -0.58800
O360        O  0.69630756  0.58927164  0.94007248    -0.48900
O361        O  0.73910617  0.60087671  0.96891848    -0.55200
C362        C  0.70642518  0.59724159  0.03884440     0.84800
O363        O  0.69837998  0.62747832  0.98801107    -0.57100
O364        O  0.71945917  0.61854986  0.91365142    -0.60400
In365      In  0.30278033  0.90639506  0.97098947     1.36900
C366        C  0.26148764  0.87312783  0.97675911     0.77300
O367        O  0.30077817  0.90537234  0.90933674    -0.61100
O368        O  0.32312162  0.89964470  0.93547254    -0.52100
C369        C  0.31839402  0.94862620  0.97114757     0.70000
O370        O  0.29870659  0.93457389  0.97806535    -0.46900
C371        C  0.31912161  0.90266218  0.03376172     0.74700
O372        O  0.26625026  0.89192360  0.96827411    -0.58800
O373        O  0.32196065  0.89638640  0.00376292    -0.48900
O374        O  0.27770420  0.87161470  0.98122993    -0.55200
C375        C  0.31545521  0.90138065  0.90584590     0.84800
O376        O  0.32977227  0.94092165  0.96415024    -0.57100
O377        O  0.30822985  0.91135938  0.03160905    -0.60400
In378      In  0.11497387  0.71764929  0.99569445     1.36900
C379        C  0.15220347  0.75656611  0.99789001     0.77300
O380        O  0.10997386  0.71342521  0.05595497    -0.61100
O381        O  0.11809059  0.69348645  0.02825956    -0.52100
C382        C  0.07372049  0.70616065  0.99333391     0.70000
O383        O  0.08855606  0.72458222  0.00505161    -0.46900
C384        C  0.11842005  0.70297014  0.93208387     0.74700
O385        O  0.13426194  0.75457045  0.99080345    -0.58800
O386        O  0.12077301  0.69610491  0.96210869    -0.48900
O387        O  0.15071637  0.73890972  0.00400263    -0.55200
C388        C  0.11378498  0.69858490  0.05810711     0.84800
O389        O  0.08030996  0.69438022  0.98276047    -0.57100
O390        O  0.11461354  0.71782142  0.93452504    -0.60400
In391      In  0.91180767  0.30477253  0.99057723     1.36900
C392        C  0.87712185  0.26415584  0.99136940     0.77300
O393        O  0.91564377  0.30745439  0.05190272    -0.61100
O394        O  0.90499483  0.32565032  0.02482980    -0.52100
C395        C  0.95384298  0.31877104  0.98684781     0.70000
O396        O  0.93942492  0.29910677  0.99297350    -0.46900
C397        C  0.90623076  0.31818804  0.92608646     0.74700
O398        O  0.89625854  0.26832570  0.98951780    -0.58800
O399        O  0.90553466  0.32611822  0.95591581    -0.48900
O400        O  0.87600322  0.28066575  0.99358578    -0.55200
C401        C  0.90972738  0.32068377  0.05467930     0.84800
O402        O  0.94660557  0.33086707  0.98308398    -0.57100
O403        O  0.90987788  0.30325420  0.92911580    -0.60400
In404      In  0.72154331  0.11700779  0.98121025     1.36900
C405        C  0.75918973  0.15503505  0.98301231     0.77300
O406        O  0.72466284  0.11641807  0.92080234    -0.61100
O407        O  0.69993405  0.12050219  0.94071148    -0.52100
C408        C  0.70955827  0.07575839  0.98299532     0.70000
O409        O  0.72944778  0.09098153  0.98389764    -0.46900
C410        C  0.70804869  0.11794265  0.04790124     0.74700
O411        O  0.75834122  0.13731756  0.98209167    -0.58800
O412        O  0.69853398  0.11897069  0.01978558    -0.48900
O413        O  0.74089457  0.15299090  0.98302355    -0.55200
C414        C  0.70927766  0.11893758  0.91320016     0.84800
O415        O  0.69648662  0.08195322  0.98066340    -0.57100
O416        O  0.72412051  0.11645905  0.04143031    -0.60400
In417      In  0.39676615  0.29399310  0.98165457     1.36900
C418        C  0.40028991  0.25980911  0.97741726     0.77300
O419        O  0.39122279  0.29193415  0.92194861    -0.61100
O420        O  0.42250658  0.31666767  0.94191961    -0.52100
C421        C  0.37059821  0.30859367  0.98282922     0.70000
O422        O  0.36298407  0.28837698  0.98032640    -0.46900
C423        C  0.40900807  0.30344318  0.05060827     0.74700
O424        O  0.38177750  0.25759235  0.97812914    -0.58800
O425        O  0.42123406  0.31480212  0.02455686    -0.48900
O426        O  0.41631499  0.27922801  0.97903170    -0.55200
C427        C  0.41017420  0.30772158  0.91454256     0.84800
O428        O  0.39109320  0.32053949  0.98510073    -0.57100
O429        O  0.39067599  0.28727246  0.04103592    -0.60400
In430      In  0.41154730  0.12092720  0.97110293     1.36900
C431        C  0.40240222  0.15162348  0.96947983     0.77300
O432        O  0.40401565  0.11534255  0.03070189    -0.61100
O433        O  0.43685475  0.12992105  0.01447751    -0.52100
C434        C  0.38895080  0.07798493  0.96419898     0.70000
O435        O  0.37951666  0.08820203  0.96683671    -0.46900
C436        C  0.43442251  0.13053667  0.91025589     0.74700
O437        O  0.38794759  0.13178023  0.96440918    -0.58800
O438        O  0.44291196  0.13341257  0.94143025    -0.48900
O439        O  0.42121575  0.15545795  0.97511545    -0.55200
C440        C  0.42349185  0.12318720  0.04037540     0.84800
O441        O  0.40941703  0.08980646  0.96478792    -0.57100
O442        O  0.41429199  0.12319134  0.91038030    -0.60400
In443      In  0.30397265  0.40717201  0.97087393     1.36900
C444        C  0.26375850  0.39958301  0.97230721     0.77300
O445        O  0.30556096  0.40885283  0.03195132    -0.61100
O446        O  0.32423227  0.43824761  0.00242782    -0.52100
C447        C  0.32191482  0.38370308  0.97617973     0.70000
O448        O  0.30146178  0.37478200  0.97460977    -0.46900
C449        C  0.31455746  0.42040317  0.90214848     0.74700
O450        O  0.26712061  0.38450859  0.97749836    -0.58800
O451        O  0.32363518  0.43290738  0.92895255    -0.48900
O452        O  0.28075701  0.41784201  0.96617651    -0.55200
C453        C  0.31871823  0.42917508  0.03319510     0.84800
O454        O  0.33258603  0.40414188  0.97472798    -0.57100
O455        O  0.30030151  0.40105933  0.91066190    -0.60400
In456      In  0.12622770  0.41469890  0.98580955     1.36900
C457        C  0.16079729  0.41121400  0.98246298     0.77300
O458        O  0.12475668  0.41583003  0.92498890    -0.61100
O459        O  0.13863864  0.44548377  0.95413171    -0.52100
C460        C  0.08326573  0.39002715  0.97874192     0.70000
O461        O  0.09451138  0.38156445  0.98015547    -0.46900
C462        C  0.12768099  0.42696210  0.05443837     0.74700
O463        O  0.14160396  0.39448132  0.98216081    -0.58800
O464        O  0.13040478  0.43900104  0.02763713    -0.48900
O465        O  0.16169627  0.42882448  0.98521434    -0.55200
C466        C  0.13348037  0.43615003  0.92358112     0.84800
O467        O  0.09410117  0.41039052  0.98148406    -0.57100
O468        O  0.12443856  0.40874593  0.04601306    -0.60400
C469        C  0.24204559  0.39683300  0.97367557    -0.05500
C470        C  0.22264052  0.37645883  0.97834211    -0.05500
C471        C  0.20248232  0.37469039  0.98027927    -0.23600
C472        C  0.20142872  0.39330898  0.97796752     0.18600
C473        C  0.22095686  0.41375068  0.97321372     0.15800
C474        C  0.24090368  0.41532907  0.97083184    -0.18700
C475        C  0.22042395  0.43251695  0.97134448    -0.20500
C476        C  0.20079985  0.43123609  0.97448992    -0.13000
C477        C  0.18107381  0.41116150  0.97921843     0.03600
C478        C  0.18142667  0.39206419  0.98068297    -0.25200
H479        H  0.22305956  0.36193775  0.98057610     0.08700
H480        H  0.18778219  0.35882453  0.98393521     0.12300
H481        H  0.25568803  0.43117476  0.96730259     0.12200
H482        H  0.23526441  0.44829256  0.96772354     0.12000
H483        H  0.20113078  0.44619054  0.97306592     0.12500
H484        H  0.16637591  0.37647910  0.98434662     0.14500
C485        C  0.33304721  0.37178094  0.97978528    -0.05500
C486        C  0.35549669  0.38365891  0.98738320    -0.05500
C487        C  0.36678478  0.37333026  0.99076873    -0.23600
C488        C  0.35596167  0.35086156  0.98612193     0.18600
C489        C  0.33342114  0.33853765  0.97828870     0.15800
C490        C  0.32197800  0.34907395  0.97548152    -0.18700
C491        C  0.32294831  0.31601262  0.97297388    -0.20500
C492        C  0.33477567  0.30596449  0.97498669    -0.13000
C493        C  0.35721691  0.31825811  0.98258319     0.03600
C494        C  0.36755351  0.34068036  0.98854747    -0.25200
H495        H  0.36444120  0.40110179  0.99087799     0.08700
H496        H  0.38407836  0.38299064  0.99666538     0.12300
H497        H  0.30470059  0.33974835  0.96943740     0.12200
H498        H  0.30570354  0.30623185  0.96680125     0.12000
H499        H  0.32646003  0.28868391  0.97010756     0.12500
H500        H  0.38485156  0.35040993  0.99446630     0.14500
C501        C  0.40360386  0.24153061  0.97509468    -0.05500
C502        C  0.42494868  0.24607124  0.97628388    -0.05500
C503        C  0.42883135  0.22941276  0.97497724    -0.23600
C504        C  0.41144864  0.20776032  0.97233644     0.18600
C505        C  0.38988634  0.20284971  0.97050921     0.15800
C506        C  0.38606508  0.21978647  0.97193615    -0.18700
C507        C  0.37258494  0.18106747  0.96755543    -0.20500
C508        C  0.37659979  0.16438158  0.96682696    -0.13000
C509        C  0.39796915  0.16914816  0.96915749     0.03600
C510        C  0.41532873  0.19095779  0.97174521    -0.25200
H511        H  0.43878721  0.26262325  0.97854457     0.08700
H512        H  0.44546440  0.23348307  0.97624782     0.12300
H513        H  0.36955123  0.21605883  0.97078542     0.12200
H514        H  0.35593878  0.17692059  0.96601036     0.12000
H515        H  0.36296038  0.14771755  0.96480346     0.12500
H516        H  0.43191393  0.19489216  0.97342415     0.14500
C517        C  0.97735567  0.32739568  0.98425392    -0.05500
C518        C  0.98602883  0.31498238  0.99421984    -0.05500
C519        C  0.00860627  0.32416102  0.99342260    -0.23600
C520        C  0.02279489  0.34586585  0.98259470     0.18600
C521        C  0.01393917  0.35808883  0.97157360     0.15800
C522        C  0.99145484  0.34881011  0.97238641    -0.18700
C523        C  0.02769831  0.37967530  0.96072525    -0.20500
C524        C  0.05012945  0.38947419  0.96212880    -0.13000
C525        C  0.05936649  0.37790977  0.97411823     0.03600
C526        C  0.04561351  0.35584047  0.98349645    -0.25200
H527        H  0.97541498  0.29836804  0.00329889     0.08700
H528        H  0.01497454  0.31443290  0.00185648     0.12300
H529        H  0.98494742  0.35849091  0.96430146     0.12200
H530        H  0.02112415  0.38917849  0.95195885     0.12000
H531        H  0.06034547  0.40639245  0.95434848     0.12500
H532        H  0.05259525  0.34680462  0.99280005     0.14500
C533        C  0.77970553  0.17663687  0.98369113    -0.05500
C534        C  0.77882272  0.19522078  0.97937155    -0.05500
C535        C  0.79776846  0.21586362  0.97973346    -0.23600
C536        C  0.81802239  0.21838161  0.98466919     0.18600
C537        C  0.81928290  0.19989105  0.98900410     0.15800
C538        C  0.80005182  0.17904316  0.98846419    -0.18700
C539        C  0.83975841  0.20268365  0.99377521    -0.20500
C540        C  0.85870951  0.22357372  0.99435038    -0.13000
C541        C  0.85743865  0.24195798  0.99046739     0.03600
C542        C  0.83700801  0.23917278  0.98547930    -0.25200
H543        H  0.76339152  0.19381276  0.97551507     0.08700
H544        H  0.79655845  0.22988285  0.97625768     0.12300
H545        H  0.80090044  0.16480644  0.99187385     0.12200
H546        H  0.84111113  0.18874724  0.99708889     0.12000
H547        H  0.87432297  0.22536743  0.99814247     0.12500
H548        H  0.83585306  0.25324077  0.98212136     0.14500
C549        C  0.32766919  0.97222072  0.97123157    -0.05500
C550        C  0.31558626  0.98073633  0.98340430    -0.05500
C551        C  0.32479934  0.00321523  0.98368458    -0.23600
C552        C  0.34622381  0.01749640  0.97171521     0.18600
C553        C  0.35838855  0.00891678  0.95947785     0.15800
C554        C  0.34906724  0.98645831  0.95930060    -0.18700
C555        C  0.37981067  0.02291911  0.94784672    -0.20500
C556        C  0.38931627  0.04528298  0.94881119    -0.13000
C557        C  0.37757899  0.05415196  0.96110697     0.03600
C558        C  0.35585786  0.04015830  0.97215508    -0.25200
H559        H  0.29907480  0.97002505  0.99289592     0.08700
H560        H  0.31521420  0.00941881  0.99335480     0.12300
H561        H  0.35855145  0.98006485  0.94987768     0.12200
H562        H  0.38932990  0.01658511  0.93838381     0.12000
H563        H  0.40604008  0.05572264  0.94010936     0.12500
H564        H  0.34674965  0.04687002  0.98197352     0.14500
C565        C  0.23902530  0.85414796  0.98131524    -0.05500
C566        C  0.22069118  0.85498362  0.97281942    -0.05500
C567        C  0.19966104  0.83626257  0.97568128    -0.23600
C568        C  0.19671769  0.81647016  0.98702089     0.18600
C569        C  0.21516451  0.81585258  0.99656458     0.15800
C570        C  0.23601135  0.83458755  0.99386330    -0.18700
C571        C  0.21263120  0.79636654  0.00786775    -0.20500
C572        C  0.19205470  0.77739668  0.00876742    -0.13000
C573        C  0.17350260  0.77746987  0.99863583     0.03600
C574        C  0.17585516  0.79719204  0.98827385    -0.25200
H575        H  0.22263670  0.86996745  0.96338400     0.08700
H576        H  0.18576776  0.83717133  0.96843630     0.12300
H577        H  0.25000427  0.83378030  0.00092257     0.12200
H578        H  0.22663692  0.79569687  0.01539119     0.12000
H579        H  0.19072349  0.76250380  0.01701217     0.12500
H580        H  0.16165069  0.79743060  0.98043398     0.14500
C581        C  0.96826421  0.64995828  0.97773642    -0.05500
C582        C  0.97730559  0.63980857  0.95968848    -0.05500
C583        C  0.99969175  0.64943165  0.95829075    -0.23600
C584        C  0.01360351  0.66941332  0.97508165     0.18600
C585        C  0.00498316  0.68015175  0.99298212     0.15800
C586        C  0.98220922  0.67036782  0.99405276    -0.18700
C587        C  0.01936284  0.70020876  0.00988261    -0.20500
C588        C  0.04192396  0.70920457  0.00950599    -0.13000
C589        C  0.05034689  0.69824852  0.99220871     0.03600
C590        C  0.03603048  0.67852152  0.97469129    -0.25200
H591        H  0.96699361  0.62417032  0.94678116     0.08700
H592        H  0.00611637  0.64105977  0.94444868     0.12300
H593        H  0.97539456  0.67828839  0.00815132     0.26600
H594        H  0.01316058  0.70875465  0.02377605     0.12000
H595        H  0.05270355  0.72444014  0.02327543     0.12500
H596        H  0.04232338  0.66993741  0.96112065     0.14500
C597        C  0.85248870  0.62774158  0.97899317    -0.05500
C598        C  0.85596403  0.64855295  0.98109327    -0.05500
C599        C  0.83823393  0.65114639  0.98005440    -0.23600
C600        C  0.81681491  0.63296862  0.97666462     0.18600
C601        C  0.81345024  0.61213012  0.97365118     0.15800
C602        C  0.83115740  0.60970082  0.97485337    -0.18700
C603        C  0.79236792  0.59385005  0.96989286    -0.20500
C604        C  0.77459855  0.59601459  0.96964737    -0.13000
C605        C  0.77742296  0.61649528  0.97316746     0.03600
C606        C  0.79867895  0.63506212  0.97650155    -0.25200
H607        H  0.87229499  0.66271823  0.98411840     0.08700
H608        H  0.84125034  0.66730035  0.98220124     0.12300
H609        H  0.82824497  0.59356801  0.97274802     0.12200
H610        H  0.78957986  0.57779201  0.96742114     0.12000
H611        H  0.75849330  0.58145927  0.96698324     0.12500
H612        H  0.80106581  0.65094361  0.97910333     0.14500
C613        C  0.65940065  0.69569446  0.00112862    -0.05500
C614        C  0.64985084  0.67652641  0.02184254    -0.05500
C615        C  0.65912883  0.66422272  0.02359431    -0.23600
C616        C  0.67812042  0.67069427  0.00436174     0.18600
C617        C  0.68852446  0.69034384  0.98444591     0.15800
C618        C  0.67916946  0.70293656  0.98318691    -0.18700
C619        C  0.70761424  0.69650912  0.96525213    -0.20500
C620        C  0.71574529  0.68295361  0.96480658    -0.13000
C621        C  0.70485758  0.66303024  0.98342402     0.03600
C622        C  0.68635355  0.65732196  0.00381848    -0.25200
H623        H  0.63477037  0.67070934  0.03619549     0.08700
H624        H  0.65106997  0.64928701  0.03917497     0.12300
H625        H  0.68662004  0.71764485  0.96704827     0.12200
H626        H  0.71593129  0.71151406  0.94990104     0.12000
H627        H  0.73007420  0.68768213  0.94894389     0.12500
H628        H  0.67793816  0.64208280  0.01859152     0.14500
C629        C  0.65269843  0.97004215  0.98509762    -0.05500
C630        C  0.63931609  0.97823781  0.98040656    -0.05500
C631        C  0.64809181  0.00042190  0.97935996    -0.23600
C632        C  0.67051506  0.01503064  0.98290142     0.18600
C633        C  0.68442507  0.00731606  0.98765139     0.15800
C634        C  0.67539309  0.98469681  0.98875337    -0.18700
C635        C  0.70698452  0.02245188  0.99104226    -0.20500
C636        C  0.71550122  0.04486624  0.98945074    -0.13000
C637        C  0.70154761  0.05239970  0.98461776     0.03600
C638        C  0.67909676  0.03728736  0.98154897    -0.25200
H639        H  0.62184833  0.96742415  0.97746665     0.08700
H640        H  0.63727480  0.00615702  0.97567624     0.12300
H641        H  0.68586927  0.97857130  0.99248583     0.12200
H642        H  0.71800007  0.01697568  0.99478348     0.12000
H643        H  0.73290037  0.05625628  0.99205232     0.12500
H644        H  0.66811913  0.04284050  0.97788843     0.14500
C645        C  0.63249224  0.85378198  0.98822576    -0.05500
C646        C  0.65293074  0.85713155  0.99642053    -0.05500
C647        C  0.65579833  0.83962659  0.99687943    -0.23600
C648        C  0.63829636  0.81846672  0.98893346     0.18600
C649        C  0.61780646  0.81513913  0.98020623     0.15800
C650        C  0.61505446  0.83267710  0.97999355    -0.18700
C651        C  0.60021983  0.79425583  0.97210745    -0.20500
C652        C  0.60268540  0.77669221  0.97319481    -0.13000
C653        C  0.62279540  0.77946045  0.98234342     0.03600
C654        C  0.64072722  0.80054927  0.98988637    -0.25200
H655        H  0.66661990  0.87323769  0.00291498     0.08700
H656        H  0.67166130  0.84262463  0.00363929     0.12300
H657        H  0.59921350  0.82984072  0.97344094     0.12200
H658        H  0.58443284  0.79143917  0.96523278     0.12000
H659        H  0.58859575  0.76074704  0.96709194     0.12500
H660        H  0.65630846  0.80294335  0.99698658     0.14500
C661        C  0.47290172  0.14896332  0.74581398    -0.05500
C662        C  0.45010231  0.13767655  0.74433149    -0.05500
C663        C  0.43790478  0.13084529  0.77625155    -0.23600
C664        C  0.44833872  0.13526528  0.81016487     0.18600
C665        C  0.47119671  0.14558181  0.81182603     0.15800
C666        C  0.48330702  0.15219459  0.77964469    -0.18700
C667        C  0.48163587  0.14994704  0.84571027    -0.20500
C668        C  0.46962261  0.14483775  0.87768655    -0.13000
C669        C  0.44697480  0.13523615  0.87636023     0.03600
C670        C  0.43638074  0.13014810  0.84241787    -0.25200
H671        H  0.44175152  0.13499970  0.71859412     0.08700
H672        H  0.42037917  0.12278722  0.77446361     0.12300
H673        H  0.50090240  0.16079265  0.78108385     0.12200
H674        H  0.49913203  0.15772827  0.84748760     0.12000
H675        H  0.47811707  0.14870929  0.90349977     0.12500
H676        H  0.41888947  0.12253787  0.84106809     0.14500
C677        C  0.43014342  0.12459111  0.07887492    -0.05500
C678        C  0.41471925  0.11740421  0.10682293    -0.05500
C679        C  0.42116754  0.11957821  0.14328773    -0.23600
C680        C  0.44318968  0.12907496  0.15247975     0.18600
C681        C  0.45872262  0.13594633  0.12445098     0.15800
C682        C  0.45210852  0.13357684  0.08797262    -0.18700
C683        C  0.48075165  0.14566183  0.13332156    -0.20500
C684        C  0.48750262  0.14944396  0.16951600    -0.13000
C685        C  0.47237982  0.14334281  0.19767659     0.03600
C686        C  0.45009091  0.13256389  0.18905987    -0.25200
H687        H  0.39766779  0.11033743  0.10049563     0.08700
H688        H  0.40898718  0.11419018  0.16428103     0.12300
H689        H  0.46415228  0.13914033  0.06667702     0.12200
H690        H  0.49286232  0.15094317  0.11221998     0.12000
H691        H  0.50474590  0.15772187  0.17548189     0.12500
H692        H  0.43832966  0.12799295  0.21056281     0.14500
C693        C  0.50109789  0.17938673  0.54501239    -0.05500
C694        C  0.51388199  0.19895762  0.52585445    -0.05500
C695        C  0.51317256  0.19947871  0.48818966    -0.23600
C696        C  0.49968034  0.18040649  0.46866726     0.18600
C697        C  0.48630464  0.16055801  0.48721140     0.15800
C698        C  0.48703895  0.16014055  0.52553998    -0.18700
C699        C  0.47281611  0.14158885  0.46687873    -0.20500
C700        C  0.47308292  0.14230021  0.42870607    -0.13000
C701        C  0.48684746  0.16197756  0.41039725     0.03600
C702        C  0.49979995  0.18096850  0.43074800    -0.25200
H703        H  0.52472610  0.21402841  0.54003480     0.08700
H704        H  0.52343533  0.21481293  0.47429011     0.12300
H705        H  0.47706618  0.14496567  0.54001475     0.12200
H706        H  0.46235385  0.12619152  0.48044713     0.12000
H707        H  0.46295604  0.12744329  0.41356657     0.12500
H708        H  0.51039067  0.19630552  0.41701862     0.14500
C709        C  0.70150606  0.11873000  0.08561236    -0.05500
C710        C  0.71348458  0.11774475  0.11480667    -0.05500
C711        C  0.70864615  0.11971341  0.15058041    -0.23600
C712        C  0.69173927  0.12279239  0.15804576     0.18600
C713        C  0.67916732  0.12329537  0.12907595     0.15800
C714        C  0.68403976  0.12113282  0.09299809    -0.18700
C715        C  0.66241052  0.12663437  0.13672322    -0.20500
C716        C  0.65877802  0.13033546  0.17241693    -0.13000
C717        C  0.67161555  0.13048140  0.20126329     0.03600
C718        C  0.68774774  0.12615656  0.19389609    -0.25200
H719        H  0.72693638  0.11579256  0.10997384     0.08700
H720        H  0.71844128  0.11925882  0.17239526     0.12300
H721        H  0.67463865  0.12186341  0.07075943     0.12200
H722        H  0.65253897  0.12703704  0.11499542     0.12000
H723        H  0.64630066  0.13372302  0.17733074     0.12500
H724        H  0.69791277  0.12646270  0.21581296     0.14500
C725        C  0.54715164  0.15865590  0.30507908    -0.05500
C726        C  0.54306776  0.13794572  0.31283882    -0.05500
C727        C  0.56014393  0.13454525  0.31462255    -0.23600
C728        C  0.58162241  0.15180715  0.30866579     0.18600
C729        C  0.58590607  0.17275452  0.30132685     0.15800
C730        C  0.56868520  0.17604184  0.29963773    -0.18700
C731        C  0.60733831  0.19005983  0.29546229    -0.20500
C732        C  0.62435793  0.18663283  0.29640284    -0.13000
C733        C  0.62030178  0.16585364  0.30327000     0.03600
C734        C  0.59885774  0.14847653  0.30959731    -0.25200
H735        H  0.52661493  0.12431009  0.31735599     0.08700
H736        H  0.55653142  0.11839728  0.32042382     0.12300
H737        H  0.57204233  0.19210231  0.29382306     0.12200
H738        H  0.61092900  0.20622121  0.28987841     0.12000
H739        H  0.64074618  0.20028839  0.29144935     0.12500
H740        H  0.59556917  0.13239539  0.31492826     0.14500
C741        C  0.70311879  0.12012484  0.87501908    -0.05500
C742        C  0.71288102  0.11589651  0.84629359    -0.05500
C743        C  0.70823355  0.11793358  0.81011607    -0.23600
C744        C  0.69390026  0.12453009  0.80173067     0.18600
C745        C  0.68369638  0.12853412  0.83031176     0.15800
C746        C  0.68816534  0.12607481  0.86673871    -0.18700
C747        C  0.66975081  0.13561518  0.82194437    -0.20500
C748        C  0.66660777  0.13947745  0.78587731    -0.13000
C749        C  0.67698026  0.13596495  0.75722800     0.03600
C750        C  0.69024509  0.12796720  0.76536112    -0.25200
H751        H  0.72436090  0.11118244  0.85180403     0.08700
H752        H  0.71623710  0.11479132  0.78867973     0.12300
H753        H  0.68053040  0.12941905  0.88855984     0.12200
H754        H  0.66176761  0.13879552  0.84336823     0.12000
H755        H  0.65637059  0.14571024  0.78042851     0.12500
H756        H  0.69857400  0.12547968  0.74361439     0.14500
C757        C  0.67426068  0.14243234  0.40892430    -0.05500
C758        C  0.65814604  0.12278981  0.42502182    -0.05500
C759        C  0.65736632  0.12015745  0.46295299    -0.23600
C760        C  0.67259759  0.13719720  0.48548111     0.18600
C761        C  0.68944384  0.15657240  0.46920169     0.15800
C762        C  0.69026020  0.15896672  0.43129945    -0.18700
C763        C  0.70466395  0.17376708  0.49108827    -0.20500
C764        C  0.70248594  0.17241252  0.52869925    -0.13000
C765        C  0.68525506  0.15375329  0.54552820     0.03600
C766        C  0.67073605  0.13575281  0.52380406    -0.25200
H767        H  0.64567716  0.10976881  0.40840405     0.08700
H768        H  0.64438793  0.10509733  0.47470502     0.12300
H769        H  0.70289013  0.17416900  0.41931425     0.12200
H770        H  0.71778129  0.18865268  0.47906818     0.12000
H771        H  0.71403066  0.18639463  0.54473787     0.12500
H772        H  0.65735444  0.12130816  0.53641565     0.14500
C773        C  0.62070085  0.16023286  0.65506180    -0.05500
C774        C  0.60025770  0.14069570  0.65269170    -0.05500
C775        C  0.58113635  0.14073813  0.65403112    -0.23600
C776        C  0.58217625  0.16034176  0.65769028     0.18600
C777        C  0.60270168  0.18003655  0.66039453     0.15800
C778        C  0.62176660  0.17985064  0.65905049    -0.18700
C779        C  0.60386884  0.19965686  0.66418372    -0.20500
C780        C  0.58489025  0.19985462  0.66466930    -0.13000
C781        C  0.56440214  0.18046348  0.66132020     0.03600
C782        C  0.56311482  0.16066537  0.65824423    -0.25200
H783        H  0.59905452  0.12537235  0.64984348     0.08700
H784        H  0.56556286  0.12547150  0.65203721     0.12300
H785        H  0.63744951  0.19501820  0.66107153     0.12200
H786        H  0.61946821  0.21487865  0.66642375     0.12000
H787        H  0.58628221  0.21528872  0.66716067     0.12500
H788        H  0.54736686  0.14560603  0.65583666     0.14500
C789        C  0.41717424  0.31478566  0.87660674    -0.05500
C790        C  0.40236893  0.30423938  0.84780202    -0.05500
C791        C  0.40893536  0.30993919  0.81175044    -0.23600
C792        C  0.43049344  0.32626024  0.80370641     0.18600
C793        C  0.44540556  0.33731364  0.83248591     0.15800
C794        C  0.43864414  0.33158677  0.86870445    -0.18700
C795        C  0.46700317  0.35349449  0.82452175    -0.20500
C796        C  0.47400421  0.35804823  0.78854263    -0.13000
C797        C  0.45954770  0.34666591  0.75969009     0.03600
C798        C  0.43759938  0.33114999  0.76746234    -0.25200
H799        H  0.38569570  0.29131717  0.85312453     0.08700
H800        H  0.39723729  0.30128729  0.79014482     0.12300
H801        H  0.45020729  0.33986638  0.89065460     0.12200
H802        H  0.47866489  0.36219141  0.84615735     0.12000
H803        H  0.49100854  0.37003149  0.78333856     0.12500
H804        H  0.42634908  0.32210482  0.74549964     0.14500
C805        C  0.48512082  0.29238475  0.67572362    -0.05500
C806        C  0.46581941  0.27193764  0.67147012    -0.05500
C807        C  0.46628283  0.25311407  0.67170061    -0.23600
C808        C  0.48607831  0.25447580  0.67610337     0.18600
C809        C  0.50546486  0.27491428  0.68181744     0.15800
C810        C  0.50484355  0.29372134  0.68176874    -0.18700
C811        C  0.52525292  0.27626216  0.68626838    -0.20500
C812        C  0.52594288  0.25760544  0.68375713    -0.13000
C813        C  0.50686947  0.23733068  0.67680943     0.03600
C814        C  0.48690056  0.23582714  0.67374462    -0.25200
H815        H  0.45044146  0.27053846  0.66688466     0.08700
H816        H  0.45125832  0.23756083  0.66750073     0.12300
H817        H  0.51981235  0.30943011  0.68525079     0.12200
H818        H  0.54024728  0.29178737  0.69083622     0.12000
H819        H  0.54149701  0.25912853  0.68631614     0.12500
H820        H  0.47207670  0.22023770  0.66857649     0.14500
C821        C  0.69526367  0.58823848  0.87488652    -0.05500
C822        C  0.68133550  0.56552692  0.87377719    -0.05500
C823        C  0.67527164  0.55453146  0.84073238    -0.23600
C824        C  0.68288779  0.56605752  0.80807973     0.18600
C825        C  0.69600757  0.58898227  0.80855843     0.15800
C826        C  0.70219145  0.59997572  0.84205546    -0.18700
C827        C  0.70325388  0.60037763  0.77555592    -0.20500
C828        C  0.69831658  0.58911255  0.74262183    -0.13000
C829        C  0.68620032  0.56632371  0.74226675     0.03600
C830        C  0.67814364  0.55493204  0.77507727    -0.25200
H831        H  0.67574164  0.55612493  0.89862426     0.08700
H832        H  0.66506333  0.53696630  0.84077548     0.12300
H833        H  0.71282528  0.61750853  0.84260041     0.12200
H834        H  0.71317435  0.61794986  0.77528671     0.12000
H835        H  0.70466135  0.59819789  0.71760764     0.12500
H836        H  0.66860713  0.53733491  0.77504409     0.14500
C837        C  0.54834802  0.40227455  0.65502577    -0.05500
C838        C  0.56598739  0.39955800  0.65535028    -0.05500
C839        C  0.58735932  0.41755293  0.65675183    -0.23600
C840        C  0.59144080  0.43857487  0.65762150     0.18600
C841        C  0.57378333  0.44144786  0.65730996     0.15800
C842        C  0.55237571  0.42329685  0.65606925    -0.18700
C843        C  0.57782904  0.46244669  0.65800364    -0.20500
C844        C  0.59917022  0.48047242  0.65811909    -0.13000
C845        C  0.61682259  0.47781366  0.65777502     0.03600
C846        C  0.61285475  0.45677842  0.65817703    -0.25200
H847        H  0.56325487  0.38347818  0.65481181     0.08700
H848        H  0.60067583  0.41503047  0.65700712     0.12300
H849        H  0.53886918  0.42554169  0.65594626     0.12200
H850        H  0.56449365  0.46493898  0.65794234     0.12000
H851        H  0.60186486  0.49653968  0.65802876     0.12500
H852        H  0.62638593  0.45457308  0.65799352     0.14500
C853        C  0.45687126  0.33879376  0.20840699    -0.05500
C854        C  0.46936676  0.35382866  0.18103305    -0.05500
C855        C  0.46198419  0.35042873  0.14512521    -0.23600
C856        C  0.44201013  0.33175906  0.13564158     0.18600
C857        C  0.42888067  0.31680815  0.16301096     0.15800
C858        C  0.43630201  0.32050710  0.19934615    -0.18700
C859        C  0.40892870  0.29808232  0.15326965    -0.20500
C860        C  0.40235423  0.29397101  0.11681315    -0.13000
C861        C  0.41558670  0.30846430  0.08932637     0.03600
C862        C  0.43528061  0.32753346  0.09910123    -0.25200
H863        H  0.48525485  0.36801495  0.18723431     0.08700
H864        H  0.47222248  0.36211583  0.12457670     0.12300
H865        H  0.42661068  0.30867179  0.22011116     0.12200
H866        H  0.39857652  0.28642434  0.17375713     0.12000
H867        H  0.38703926  0.27921151  0.11005707     0.12500
H868        H  0.44556549  0.33891486  0.07822454     0.14500
C869        C  0.46798622  0.34630247  0.55081711    -0.05500
C870        C  0.46811612  0.36346206  0.53319935    -0.05500
C871        C  0.46765646  0.36433230  0.49505343    -0.23600
C872        C  0.46729785  0.34817659  0.47395485     0.18600
C873        C  0.46637692  0.33053781  0.49171389     0.15800
C874        C  0.46640116  0.32958183  0.52970168    -0.18700
C875        C  0.46646237  0.31453184  0.47133055    -0.20500
C876        C  0.46828914  0.31631141  0.43369834    -0.13000
C877        C  0.46973102  0.33393587  0.41541052     0.03600
C878        C  0.46872666  0.34966769  0.43566260    -0.25200
H879        H  0.46943120  0.37659973  0.54882488     0.08700
H880        H  0.46834320  0.37800486  0.48208534     0.12300
H881        H  0.46627703  0.31622605  0.54284941     0.12200
H882        H  0.46579371  0.30093349  0.48459335     0.12000
H883        H  0.46903479  0.30401111  0.41884971     0.12500
H884        H  0.47009710  0.36347464  0.42190378     0.14500
C885        C  0.49482160  0.29158330  0.28276393    -0.05500
C886        C  0.51567616  0.29560001  0.27688510    -0.05500
C887        C  0.51880712  0.27842554  0.27476295    -0.23600
C888        C  0.50115218  0.25695328  0.27881499     0.18600
C889        C  0.47995256  0.25270439  0.28294541     0.15800
C890        C  0.47689654  0.27003144  0.28452392    -0.18700
C891        C  0.46229759  0.23124656  0.28702512    -0.20500
C892        C  0.46572897  0.21424704  0.28869660    -0.13000
C893        C  0.48684538  0.21837189  0.28607276     0.03600
C894        C  0.50444574  0.23975390  0.28021245    -0.25200
H895        H  0.52970117  0.31207347  0.27509394     0.08700
H896        H  0.53513802  0.28198081  0.27121225     0.12300
H897        H  0.46071234  0.26675421  0.28878950     0.12200
H898        H  0.44591794  0.22766686  0.28995951     0.12000
H899        H  0.45186998  0.19788441  0.29285899     0.12500
H900        H  0.52077080  0.24309674  0.27783830     0.14500
C901        C  0.68864252  0.56093503  0.20530186    -0.05500
C902        C  0.70540708  0.58302261  0.20515800    -0.05500
C903        C  0.71170051  0.59491109  0.17275591    -0.23600
C904        C  0.70134891  0.58488011  0.13993425     0.18600
C905        C  0.68391980  0.56287383  0.14008976     0.15800
C906        C  0.67760841  0.55110646  0.17273439    -0.18700
C907        C  0.67355864  0.55276070  0.10739205    -0.20500
C908        C  0.68071039  0.56415618  0.07468607    -0.13000
C909        C  0.69836472  0.58586326  0.07400071     0.03600
C910        C  0.70846186  0.59626247  0.10686965    -0.25200
H911        H  0.71424510  0.59089972  0.22987636     0.08700
H912        H  0.72505149  0.61176992  0.17322238     0.12300
H913        H  0.66469446  0.53405549  0.17250539     0.12200
H914        H  0.66016040  0.53591885  0.10702391     0.12000
H915        H  0.67263206  0.55581336  0.04975869     0.12500
H916        H  0.72203491  0.61303468  0.10666437     0.14500
C917        C  0.69031734  0.53486743  0.40388111    -0.05500
C918        C  0.70273040  0.52826952  0.42232974    -0.05500
C919        C  0.70427311  0.52903846  0.45999358    -0.23600
C920        C  0.69341743  0.53642262  0.48016987     0.18600
C921        C  0.68154809  0.54397976  0.46220891     0.15800
C922        C  0.68007187  0.54319201  0.42394201    -0.18700
C923        C  0.67095743  0.55157853  0.48304762    -0.20500
C924        C  0.67150198  0.55091134  0.52114454    -0.13000
C925        C  0.68248474  0.54247475  0.53887801     0.03600
C926        C  0.69377689  0.53571392  0.51811498    -0.25200
H927        H  0.71094513  0.52198251  0.40761611     0.08700
H928        H  0.71358358  0.52337457  0.47339055     0.12300
H929        H  0.67050283  0.54837325  0.40999614     0.12200
H930        H  0.66188560  0.55758643  0.46992031     0.12000
H931        H  0.66272493  0.55625770  0.53668117     0.12500
H932        H  0.70252330  0.52941188  0.53155273     0.14500
C933        C  0.62322604  0.46435936  0.30082340    -0.05500
C934        C  0.62323833  0.44518923  0.30215938    -0.05500
C935        C  0.60383786  0.42509776  0.30625799    -0.23600
C936        C  0.58406536  0.42382943  0.30877947     0.18600
C937        C  0.58386021  0.44302708  0.30767885     0.15800
C938        C  0.60348452  0.46321486  0.30385572    -0.18700
C939        C  0.56399677  0.44164497  0.31003133    -0.20500
C940        C  0.54447948  0.42139875  0.31257592    -0.13000
C941        C  0.54454409  0.40225368  0.31287238     0.03600
C942        C  0.56445969  0.40362725  0.31162167    -0.25200
H943        H  0.63831445  0.44573054  0.30021435     0.08700
H944        H  0.60428280  0.41054867  0.30714665     0.12300
H945        H  0.60337318  0.47795347  0.30289747     0.12200
H946        H  0.56352534  0.45617858  0.30931402     0.12000
H947        H  0.52929549  0.42069536  0.31351828     0.12500
H948        H  0.56468460  0.38894287  0.31188650     0.14500
C949        C  0.89721851  0.34106633  0.22146697    -0.05500
C950        C  0.90565918  0.32779337  0.22205417    -0.05500
C951        C  0.91140586  0.32228217  0.18957632    -0.23600
C952        C  0.90857688  0.32981122  0.15610923     0.18600
C953        C  0.90124732  0.34414661  0.15571388     0.15800
C954        C  0.89595321  0.34989303  0.18829746    -0.18700
C955        C  0.89820321  0.35165390  0.12259614    -0.20500
C956        C  0.90147287  0.34431666  0.08995601    -0.13000
C957        C  0.90801831  0.32946197  0.08973132     0.03600
C958        C  0.91205669  0.32263202  0.12301607    -0.25200
H959        H  0.90673494  0.32077741  0.24731482     0.08700
H960        H  0.91716070  0.31140746  0.19050528     0.12300
H961        H  0.88956688  0.36025220  0.18753745     0.12200
H962        H  0.89266672  0.36271760  0.12190345     0.12000
H963        H  0.89843106  0.34996765  0.06476918     0.12500
H964        H  0.91719285  0.31124478  0.12317327     0.14500
C965        C  0.72953179  0.21631750  0.28479469    -0.05500
C966        C  0.72875474  0.23490775  0.27968337    -0.05500
C967        C  0.74783122  0.25544363  0.27890375    -0.23600
C968        C  0.76802361  0.25773917  0.28326645     0.18600
C969        C  0.76908776  0.23911805  0.28737046     0.15800
C970        C  0.74979024  0.21845927  0.28797657    -0.18700
C971        C  0.78940105  0.24157636  0.29177159    -0.20500
C972        C  0.80839213  0.26231660  0.29326589    -0.13000
C973        C  0.80732951  0.28085515  0.29020536     0.03600
C974        C  0.78711017  0.27841694  0.28453199    -0.25200
H975        H  0.71331689  0.23362584  0.27708179     0.08700
H976        H  0.74676112  0.26955461  0.27561280     0.12300
H977        H  0.75051330  0.20417863  0.29192035     0.12200
H978        H  0.79055941  0.22750574  0.29479244     0.12000
H979        H  0.82386184  0.26386399  0.29751287     0.12500
H980        H  0.78613429  0.29263285  0.28211245     0.14500
C981        C  0.89242603  0.58280304  0.08199797    -0.05500
C982        C  0.88194486  0.56010277  0.08162732    -0.05500
C983        C  0.87852387  0.54858188  0.11376495    -0.23600
C984        C  0.88559783  0.55955457  0.14694453     0.18600
C985        C  0.89644140  0.58240760  0.14781904     0.15800
C986        C  0.89976515  0.59393952  0.11524990    -0.18700
C987        C  0.90347592  0.59320654  0.18132536    -0.20500
C988        C  0.89922802  0.58139034  0.21366991    -0.13000
C989        C  0.88792632  0.55863275  0.21293760     0.03600
C990        C  0.88152028  0.54790339  0.17932184    -0.25200
H991        H  0.87620120  0.55115840  0.05638922     0.08700
H992        H  0.87019960  0.53106765  0.11268491     0.12300
H993        H  0.90793827  0.61145038  0.11578785     0.12200
H994        H  0.91184332  0.61071504  0.18257894     0.12000
H995        H  0.90409081  0.58997879  0.23928652     0.12500
H996        H  0.87271386  0.53033992  0.17837594     0.14500
C997        C  0.80812285  0.52753299  0.28911010    -0.05500
C998        C  0.81087735  0.54757956  0.29730374    -0.05500
C999        C  0.79354600  0.55036006  0.29413106    -0.23600
C1000       C  0.77312364  0.53311941  0.28275525     0.18600
C1001       C  0.77019223  0.51296951  0.27360163     0.15800
C1002       C  0.78778746  0.51029844  0.27674823    -0.18700
C1003       C  0.74958487  0.49576170  0.26240021    -0.20500
C1004       C  0.73190927  0.49827949  0.26175900    -0.13000
C1005       C  0.73466966  0.51807660  0.27202718     0.03600
C1006       C  0.75544690  0.53557526  0.28158561    -0.25200
H1007       H  0.82642880  0.56111597  0.30670773     0.08700
H1008       H  0.79603198  0.56589664  0.30117821     0.12300
H1009       H  0.78557223  0.49480709  0.27023987     0.12200
H1010       H  0.74701781  0.48022591  0.25512652     0.12000
H1011       H  0.71596937  0.48455307  0.25435065     0.12500
H1012       H  0.75772528  0.55089908  0.28961495     0.14500
C1013       C  0.87025679  0.47145188  0.29752413    -0.05500
C1014       C  0.88926242  0.47377782  0.31199797    -0.05500
C1015       C  0.89167584  0.45610550  0.31322295    -0.23600
C1016       C  0.87510693  0.43580119  0.29999947     0.18600
C1017       C  0.85615932  0.43345734  0.28454194     0.15800
C1018       C  0.85388181  0.45128534  0.28333093    -0.18700
C1019       C  0.83958242  0.41319079  0.27130060    -0.20500
C1020       C  0.84147505  0.39525896  0.27423334    -0.13000
C1021       C  0.85998610  0.39726000  0.29037544     0.03600
C1022       C  0.87693624  0.41770337  0.30270213    -0.25200
H1023       H  0.90209244  0.48917005  0.32308674     0.08700
H1024       H  0.90633562  0.45823013  0.32507264     0.12300
H1025       H  0.83917202  0.44933325  0.27201240     0.12200
H1026       H  0.82498926  0.41111791  0.25923992     0.12000
H1027       H  0.82823697  0.37969660  0.26439301     0.12500
H1028       H  0.89130306  0.41943214  0.31511598     0.14500
C1029       C  0.89353295  0.33924842  0.75830271    -0.05500
C1030       C  0.90134073  0.32542333  0.75834249    -0.05500
C1031       C  0.90595648  0.31885577  0.79113224    -0.23600
C1032       C  0.90282064  0.32600470  0.82442442     0.18600
C1033       C  0.89570858  0.34052713  0.82446801     0.15800
C1034       C  0.89123978  0.34711127  0.79153263    -0.18700
C1035       C  0.89260220  0.34781252  0.85750218    -0.20500
C1036       C  0.89619443  0.34057200  0.89029537    -0.13000
C1037       C  0.90291770  0.32585948  0.89080684     0.03600
C1038       C  0.90631825  0.31867894  0.85765070    -0.25200
H1039       H  0.90317449  0.31910285  0.73308552     0.08700
H1040       H  0.91150562  0.30781375  0.79047234     0.12300
H1041       H  0.88526663  0.35781955  0.79187013     0.12200
H1042       H  0.88717354  0.35895937  0.85800077     0.12000
H1043       H  0.89347811  0.34635820  0.91539159     0.12500
H1044       H  0.91158170  0.30739145  0.85770554     0.14500
C1045       C  0.86380750  0.34261788  0.41898068    -0.05500
C1046       C  0.84394861  0.33573203  0.43608759    -0.05500
C1047       C  0.84249837  0.33547328  0.47362354    -0.23600
C1048       C  0.86086969  0.34202909  0.49510755     0.18600
C1049       C  0.88106571  0.34896570  0.47875734     0.15800
C1050       C  0.88247166  0.34928130  0.44048476    -0.18700
C1051       C  0.89928832  0.35541156  0.50117201    -0.20500
C1052       C  0.89740231  0.35503650  0.53919899    -0.13000
C1053       C  0.87728797  0.34826378  0.55523992     0.03600
C1054       C  0.85916226  0.34174179  0.53282234    -0.25200
H1055       H  0.82933336  0.33054786  0.42036681     0.08700
H1056       H  0.82692992  0.33012836  0.48587021     0.12300
H1057       H  0.89787013  0.35462695  0.42759813     0.12200
H1058       H  0.91495212  0.36078335  0.48933663     0.12000
H1059       H  0.91162905  0.36018949  0.55597658     0.12500
H1060       H  0.84351706  0.33643814  0.54475446     0.14500
C1061       C  0.80521469  0.29246373  0.67279961    -0.05500
C1062       C  0.78691028  0.29409365  0.67287886    -0.05500
C1063       C  0.76594669  0.27546119  0.67260908    -0.23600
C1064       C  0.76295029  0.25488588  0.67235964     0.18600
C1065       C  0.78126118  0.25305876  0.67288238     0.15800
C1066       C  0.80227888  0.27186323  0.67305283    -0.18700
C1067       C  0.77822371  0.23245202  0.67278123    -0.20500
C1068       C  0.75724062  0.21382835  0.67149684    -0.13000
C1069       C  0.73898610  0.21552568  0.67027361     0.03600
C1070       C  0.74195562  0.23612522  0.67109260    -0.25200
H1071       H  0.78879912  0.30981540  0.67266554     0.08700
H1072       H  0.75209172  0.27714832  0.67227637     0.12300
H1073       H  0.81631483  0.27046031  0.67300282     0.12200
H1074       H  0.79206363  0.23074451  0.67328459     0.12000
H1075       H  0.75530655  0.19809094  0.67089335     0.12500
H1076       H  0.72795784  0.23758733  0.67012350     0.14500
C1077       C  0.88177319  0.55763410  0.75590554    -0.05500
C1078       C  0.89344253  0.58041115  0.75524155    -0.05500
C1079       C  0.89842387  0.59215763  0.78761192    -0.23600
C1080       C  0.89166345  0.58126912  0.82107305     0.18600
C1081       C  0.88054227  0.55838592  0.82195099     0.15800
C1082       C  0.87587838  0.54678390  0.78949725    -0.18700
C1083       C  0.87365878  0.54738024  0.85518975    -0.20500
C1084       C  0.87747691  0.55891048  0.88732318    -0.13000
C1085       C  0.88825599  0.58164151  0.88683601     0.03600
C1086       C  0.89545972  0.59278057  0.85357822    -0.25200
H1087       H  0.89807235  0.58909689  0.72965741     0.08700
H1088       H  0.90704698  0.60969432  0.78640829     0.12300
H1089       H  0.86688459  0.52920593  0.79036084     0.12200
H1090       H  0.86511980  0.52984312  0.85630162     0.12000
H1091       H  0.87187135  0.54998584  0.91262576     0.12500
H1092       H  0.90393737  0.61032436  0.85298361     0.14500
C1093       C  0.79630651  0.51846880  0.66848672    -0.05500
C1094       C  0.77644941  0.49840159  0.67171967    -0.05500
C1095       C  0.75679980  0.49738253  0.67209666    -0.23600
C1096       C  0.75671885  0.51642338  0.66897768     0.18600
C1097       C  0.77665092  0.53669663  0.66596401     0.15800
C1098       C  0.79630246  0.53759549  0.66590990    -0.18700
C1099       C  0.77659331  0.55572137  0.66242726    -0.20500
C1100       C  0.75693708  0.55464333  0.66107646    -0.13000
C1101       C  0.73704528  0.53455824  0.66347198     0.03600
C1102       C  0.73704039  0.51549894  0.66802091    -0.25200
H1103       H  0.77609672  0.48345193  0.67373066     0.08700
H1104       H  0.74168568  0.48171194  0.67437877     0.12300
H1105       H  0.81154887  0.55314138  0.66334084     0.12200
H1106       H  0.79171816  0.57138240  0.66012097     0.12000
H1107       H  0.75730287  0.56953604  0.65762408     0.12500
H1108       H  0.72175908  0.49993193  0.66988547     0.14500
C1109       C  0.85754764  0.52242941  0.41606169    -0.05500
C1110       C  0.83701440  0.50799146  0.43138546    -0.05500
C1111       C  0.83409874  0.50680715  0.46876206    -0.23600
C1112       C  0.85169122  0.51997426  0.49178634     0.18600
C1113       C  0.87250406  0.53462737  0.47706136     0.15800
C1114       C  0.87533084  0.53585019  0.43907954    -0.18700
C1115       C  0.89001337  0.54762750  0.50071932    -0.20500
C1116       C  0.88689495  0.54596556  0.53844459    -0.13000
C1117       C  0.86623377  0.53129302  0.55303897     0.03600
C1118       C  0.84870945  0.51848989  0.52938766    -0.25200
H1119       H  0.82302013  0.49751830  0.41437256     0.08700
H1120       H  0.81805906  0.49549639  0.47966527     0.12300
H1121       H  0.89123574  0.54698531  0.42756579     0.12200
H1122       H  0.90611104  0.55895440  0.49008359     0.12000
H1123       H  0.90065169  0.55597192  0.55618423     0.12500
H1124       H  0.83266624  0.50710659  0.54025408     0.14500
C1125       C  0.87338037  0.40771525  0.67093230    -0.05500
C1126       C  0.89206132  0.42678731  0.65828024    -0.05500
C1127       C  0.89281037  0.44628787  0.65686235    -0.23600
C1128       C  0.87487347  0.44697369  0.66809219     0.18600
C1129       C  0.85613146  0.42785989  0.68122522     0.15800
C1130       C  0.85551834  0.40843326  0.68255829    -0.18700
C1131       C  0.83814663  0.42837233  0.69242556    -0.20500
C1132       C  0.83855351  0.44758872  0.69013439    -0.13000
C1133       C  0.85693068  0.46663903  0.67662406     0.03600
C1134       C  0.87519213  0.46631154  0.66597165    -0.25200
H1135       H  0.90596016  0.42655296  0.64898537     0.08700
H1136       H  0.90730531  0.46075392  0.64667587     0.12300
H1137       H  0.84098243  0.39379217  0.69224570     0.12200
H1138       H  0.82368371  0.41386704  0.70260937     0.12000
H1139       H  0.82431342  0.44745948  0.69858125     0.12500
H1140       H  0.88942444  0.48092664  0.65547788     0.14500
C1141       C  0.55478243  0.88341609  0.21072638    -0.05500
C1142       C  0.54034155  0.87849466  0.18144681    -0.05500
C1143       C  0.54751916  0.88142027  0.14554429    -0.23600
C1144       C  0.56928162  0.88899855  0.13799940     0.18600
C1145       C  0.58415752  0.89462118  0.16713435     0.15800
C1146       C  0.57688607  0.89206460  0.20333712    -0.18700
C1147       C  0.60589054  0.90204243  0.15950241    -0.20500
C1148       C  0.61271850  0.90350792  0.12359921    -0.13000
C1149       C  0.59801201  0.89760814  0.09442103     0.03600
C1150       C  0.57628561  0.89056254  0.10189467    -0.25200
H1151       H  0.52325832  0.87186438  0.18636258     0.08700
H1152       H  0.53587721  0.87714501  0.12366261     0.12300
H1153       H  0.58814396  0.89572130  0.22562581     0.12200
H1154       H  0.61757948  0.90645631  0.18134648     0.12000
H1155       H  0.62956872  0.90911197  0.11868372     0.12500
H1156       H  0.56478809  0.88608757  0.07969693     0.14500
C1157       C  0.32737297  0.89941300  0.06846296    -0.05500
C1158       C  0.33659722  0.88683656  0.06904146    -0.05500
C1159       C  0.34328713  0.88240954  0.10167465    -0.23600
C1160       C  0.34085985  0.89044720  0.13445139     0.18600
C1161       C  0.33201058  0.90348816  0.13433537     0.15800
C1162       C  0.32535551  0.90795367  0.10126055    -0.18700
C1163       C  0.32946105  0.91128784  0.16742406    -0.20500
C1164       C  0.33485846  0.90552340  0.20031582    -0.13000
C1165       C  0.34310201  0.89206507  0.20060773     0.03600
C1166       C  0.34651630  0.88503219  0.16741131    -0.25200
H1167       H  0.33827902  0.88003401  0.04422725     0.08700
H1168       H  0.35001153  0.87235900  0.10133282     0.12300
H1169       H  0.31826185  0.91767955  0.10113003     0.12200
H1170       H  0.32276677  0.92135918  0.16793511     0.12000
H1171       H  0.33203177  0.91109826  0.22554619     0.12500
H1172       H  0.35281065  0.87459657  0.16723596     0.14500
C1173       C  0.40174014  0.85870415  0.29611685    -0.05500
C1174       C  0.39873412  0.83819995  0.29160516    -0.05500
C1175       C  0.41643747  0.83578798  0.29266219    -0.23600
C1176       C  0.43753930  0.85382705  0.29848216     0.18600
C1177       C  0.44085166  0.87458462  0.30285697     0.15800
C1178       C  0.42293781  0.87692164  0.30148138    -0.18700
C1179       C  0.46200896  0.89257554  0.30886331    -0.20500
C1180       C  0.47964611  0.88999401  0.31081772    -0.13000
C1181       C  0.47648993  0.86939539  0.30670873     0.03600
C1182       C  0.45533368  0.85138450  0.30031948    -0.25200
H1183       H  0.38260191  0.82392388  0.28732528     0.08700
H1184       H  0.41359062  0.81976485  0.28920217     0.12300
H1185       H  0.42545737  0.89281147  0.30502128     0.12200
H1186       H  0.46490624  0.90862164  0.31227222     0.12000
H1187       H  0.49578059  0.90413733  0.31569087     0.12500
H1188       H  0.45267064  0.83541793  0.29704307     0.14500
C1189       C  0.54588124  0.87601775  0.77316717    -0.05500
C1190       C  0.53226835  0.86932204  0.80372423    -0.05500
C1191       C  0.54083577  0.87243527  0.83882215    -0.23600
C1192       C  0.56324231  0.88218702  0.84424331     0.18600
C1193       C  0.57720895  0.88925162  0.81386445     0.15800
C1194       C  0.56847079  0.88628554  0.77849189    -0.18700
C1195       C  0.59960995  0.89876622  0.81944996    -0.20500
C1196       C  0.60804903  0.90121840  0.85463976    -0.13000
C1197       C  0.59429900  0.89426675  0.88502570     0.03600
C1198       C  0.57185051  0.88477824  0.87952658    -0.25200
H1199       H  0.51480891  0.86123368  0.80046902     0.08700
H1200       H  0.52986267  0.86688069  0.86172432     0.12300
H1201       H  0.57911074  0.89123078  0.75519632     0.12200
H1202       H  0.61060687  0.90423327  0.79659673     0.12000
H1203       H  0.62540968  0.90861493  0.85807879     0.12500
H1204       H  0.56105322  0.87931330  0.90267424     0.14500
C1205       C  0.53946389  0.87097325  0.42509597    -0.05500
C1206       C  0.55198453  0.89128843  0.44219954    -0.05500
C1207       C  0.55283539  0.89284028  0.48036786    -0.23600
C1208       C  0.54126874  0.87408718  0.50211184     0.18600
C1209       C  0.52935903  0.85361584  0.48490559     0.15800
C1210       C  0.52858584  0.85221964  0.44688144    -0.18700
C1211       C  0.51783790  0.83474878  0.50588247    -0.20500
C1212       C  0.51736285  0.83605196  0.54351608    -0.13000
C1213       C  0.52846909  0.85621972  0.56138484     0.03600
C1214       C  0.54086197  0.87530919  0.54049337    -0.25200
H1215       H  0.56057929  0.90598408  0.42609363     0.08700
H1216       H  0.56219149  0.90872423  0.49283871     0.12300
H1217       H  0.51905322  0.83639422  0.43417334     0.12200
H1218       H  0.50876288  0.81892583  0.49311303     0.12000
H1219       H  0.50788001  0.82107592  0.55871571     0.12500
H1220       H  0.54949743  0.89096364  0.55383571     0.14500
C1221       C  0.32330475  0.89893307  0.87038015    -0.05500
C1222       C  0.33810162  0.89229440  0.86967348    -0.05500
C1223       C  0.34548341  0.88933464  0.83684758    -0.23600
C1224       C  0.33819119  0.89291295  0.80395142     0.18600
C1225       C  0.32375207  0.90015571  0.80402610     0.15800
C1226       C  0.31636836  0.90314692  0.83734750    -0.18700
C1227       C  0.31653479  0.90362913  0.77074689    -0.20500
C1228       C  0.32260377  0.89878465  0.73793480    -0.13000
C1229       C  0.33603559  0.89049665  0.73796303     0.03600
C1230       C  0.34439121  0.88838862  0.77105248    -0.25200
H1231       H  0.34380143  0.88907547  0.89465579     0.08700
H1232       H  0.35658513  0.88382426  0.83720612     0.12300
H1233       H  0.30508866  0.90843799  0.83756695     0.12200
H1234       H  0.30557343  0.90930224  0.77014393     0.12000
H1235       H  0.31587318  0.90042265  0.71273207     0.12500
H1236       H  0.35482385  0.88207083  0.77136303     0.14500
C1237       C  0.33250091  0.86589635  0.53867391    -0.05500
C1238       C  0.31342996  0.84976453  0.52104193    -0.05500
C1239       C  0.31166915  0.84945448  0.48333957    -0.23600
C1240       C  0.32912188  0.86510690  0.46242094     0.18600
C1241       C  0.34808332  0.88204582  0.47974161     0.15800
C1242       C  0.34956045  0.88252570  0.51797147    -0.18700
C1243       C  0.36554999  0.89753656  0.45839089    -0.20500
C1244       C  0.36464218  0.89560123  0.42046615    -0.13000
C1245       C  0.34624877  0.87819630  0.40331040     0.03600
C1246       C  0.32827501  0.86340821  0.42448038    -0.25200
H1247       H  0.29999606  0.83695844  0.53649123     0.08700
H1248       H  0.29696206  0.83647392  0.47050357     0.12300
H1249       H  0.36434576  0.89500109  0.53137941     0.12200
H1250       H  0.38020092  0.91069215  0.47105507     0.12000
H1251       H  0.37868400  0.90718096  0.40468324     0.12500
H1252       H  0.31394373  0.84996311  0.41152744     0.14500
C1253       C  0.46631946  0.86299664  0.66526616    -0.05500
C1254       C  0.46949559  0.88211102  0.64989654    -0.05500
C1255       C  0.45189294  0.88450485  0.64452075    -0.23600
C1256       C  0.43078805  0.86781540  0.65445831     0.18600
C1257       C  0.42751541  0.84858879  0.67012090     0.15800
C1258       C  0.44524370  0.84632974  0.67547051    -0.18700
C1259       C  0.40651674  0.83181959  0.67996814    -0.20500
C1260       C  0.38886880  0.83398423  0.67432144    -0.13000
C1261       C  0.39180274  0.85299071  0.65889581     0.03600
C1262       C  0.41289684  0.86994202  0.64901682    -0.25200
H1263       H  0.48557304  0.89512383  0.64160848     0.08700
H1264       H  0.45477221  0.89935354  0.63241451     0.12300
H1265       H  0.44257537  0.83147975  0.68726588     0.12200
H1266       H  0.40371700  0.81698532  0.69201993     0.12000
H1267       H  0.37284072  0.82074477  0.68234941     0.12500
H1268       H  0.41536584  0.88467826  0.63709575     0.14500
C1269       C  0.34131682  0.46537737  0.20005561    -0.05500
C1270       C  0.32926869  0.44257465  0.20025144    -0.05500
C1271       C  0.32306129  0.43092280  0.16765869    -0.23600
C1272       C  0.32876160  0.44186156  0.13420038     0.18600
C1273       C  0.34156605  0.46479388  0.13366170     0.15800
C1274       C  0.34780895  0.47639062  0.16653347    -0.18700
C1275       C  0.34738790  0.47574535  0.10022759    -0.20500
C1276       C  0.34015248  0.46412612  0.06766087    -0.13000
C1277       C  0.32694077  0.44133662  0.06782898     0.03600
C1278       C  0.32150900  0.43028521  0.10132507    -0.25200
H1279       H  0.32402685  0.43371003  0.22564106     0.08700
H1280       H  0.31336443  0.41335006  0.16863048     0.12300
H1281       H  0.35710804  0.49397817  0.16596647     0.12200
H1282       H  0.35728302  0.49331426  0.09926222     0.12000
H1283       H  0.34467590  0.47302175  0.04227725     0.12500
H1284       H  0.31145480  0.41270826  0.10184612     0.14500
C1285       C  0.59287246  0.70537857  0.08933429    -0.05500
C1286       C  0.57005514  0.69326234  0.09072592    -0.05500
C1287       C  0.55942079  0.68819928  0.12391104    -0.23600
C1288       C  0.57145340  0.69491482  0.15626137     0.18600
C1289       C  0.59443233  0.70669995  0.15536019     0.15800
C1290       C  0.60505145  0.71202475  0.12175899    -0.18700
C1291       C  0.60628967  0.71300469  0.18807763    -0.20500
C1292       C  0.59541590  0.70791210  0.22132125    -0.13000
C1293       C  0.57261569  0.69666058  0.22211960     0.03600
C1294       C  0.56077271  0.69009906  0.18948304    -0.25200
H1295       H  0.56038662  0.68801206  0.06604150     0.08700
H1296       H  0.54179805  0.67910209  0.12426530     0.12300
H1297       H  0.62267283  0.72126765  0.12082536     0.12200
H1298       H  0.62390403  0.72196675  0.18793375     0.12000
H1299       H  0.60480706  0.71314116  0.24628721     0.12500
H1300       H  0.54315081  0.68130850  0.18987162     0.14500
C1301       C  0.52757122  0.73584202  0.31260504    -0.05500
C1302       C  0.50641118  0.73170711  0.31231803    -0.05500
C1303       C  0.50311930  0.74884569  0.31184632    -0.23600
C1304       C  0.52094628  0.77043659  0.31177678     0.18600
C1305       C  0.54229384  0.77472910  0.31218761     0.15800
C1306       C  0.54545939  0.75745188  0.31243565    -0.18700
C1307       C  0.56015148  0.79624725  0.31253765    -0.20500
C1308       C  0.55693892  0.81338658  0.31240255    -0.13000
C1309       C  0.53582232  0.80938973  0.31169581     0.03600
C1310       C  0.51783320  0.78780114  0.31142103    -0.25200
H1311       H  0.49238000  0.71519246  0.31251332     0.08700
H1312       H  0.48663432  0.74521009  0.31163978     0.12300
H1313       H  0.56186843  0.76085122  0.31274360     0.12200
H1314       H  0.57662239  0.79983599  0.31299663     0.12000
H1315       H  0.57106247  0.82984750  0.31278234     0.12500
H1316       H  0.50147280  0.78451953  0.31110291     0.14500
C1317       C  0.40533725  0.55860532  0.30722195    -0.05500
C1318       C  0.40421162  0.57662557  0.31597443    -0.05500
C1319       C  0.42302374  0.59733548  0.31787983    -0.23600
C1320       C  0.44332930  0.60039592  0.31119542     0.18600
C1321       C  0.44473810  0.58238698  0.30266323     0.15800
C1322       C  0.42569786  0.56154931  0.30079102    -0.18700
C1323       C  0.46515969  0.58560204  0.29599148    -0.20500
C1324       C  0.48398644  0.60643476  0.29802950    -0.13000
C1325       C  0.48266086  0.62433920  0.30677025     0.03600
C1326       C  0.46224115  0.62119817  0.31306685    -0.25200
H1327       H  0.38869180  0.57476053  0.32096366     0.08700
H1328       H  0.42167582  0.61096495  0.32445708     0.12300
H1329       H  0.42669864  0.54773513  0.29398355     0.12200
H1330       H  0.46657642  0.57202644  0.28933146     0.12000
H1331       H  0.49959853  0.60852139  0.29300060     0.12500
H1332       H  0.46105631  0.63492687  0.31971028     0.14500
C1333       C  0.31979852  0.42788909  0.86392612    -0.05500
C1334       C  0.30867081  0.41340933  0.83512862    -0.05500
C1335       C  0.31268231  0.42067316  0.79906864    -0.23600
C1336       C  0.32787340  0.44259517  0.79107044     0.18600
C1337       C  0.33939345  0.45719651  0.81986058     0.15800
C1338       C  0.33537610  0.44975870  0.85596361    -0.18700
C1339       C  0.35444429  0.47912408  0.81215168    -0.20500
C1340       C  0.35774390  0.48665245  0.77642723    -0.13000
C1341       C  0.34620359  0.47244524  0.74747871     0.03600
C1342       C  0.33143110  0.45028218  0.75496769    -0.25200
H1343       H  0.29660408  0.39647249  0.84051668     0.08700
H1344       H  0.30367358  0.40919299  0.77747437     0.12300
H1345       H  0.34407803  0.46110268  0.87789310     0.12200
H1346       H  0.36342803  0.49055435  0.83382644     0.12000
H1347       H  0.36919971  0.50379690  0.77151089     0.12500
H1348       H  0.32231543  0.43919605  0.73295117     0.14500
C1349       C  0.35105637  0.48258930  0.53807662    -0.05500
C1350       C  0.36962516  0.48501142  0.52198891    -0.05500
C1351       C  0.37092308  0.48406358  0.48408990    -0.23600
C1352       C  0.35353498  0.48038045  0.46174864     0.18600
C1353       C  0.33437431  0.47675666  0.47803515     0.15800
C1354       C  0.33335214  0.47806627  0.51589615    -0.18700
C1355       C  0.31682070  0.47276755  0.45614365    -0.20500
C1356       C  0.31863285  0.47365259  0.41842382    -0.13000
C1357       C  0.33803027  0.47857150  0.40170731     0.03600
C1358       C  0.35524082  0.48120081  0.42354181    -0.25200
H1359       H  0.38354472  0.48874050  0.53857255     0.08700
H1360       H  0.38573976  0.48681802  0.47222843     0.12300
H1361       H  0.31897088  0.47618967  0.52811854     0.12200
H1362       H  0.30193268  0.46971766  0.46820640     0.12000
H1363       H  0.30509577  0.47141906  0.40230465     0.12500
H1364       H  0.37029779  0.48504919  0.41098904     0.14500
C1365       C  0.59349481  0.69787340  0.88978523    -0.05500
C1366       C  0.57081985  0.68329390  0.88787473    -0.05500
C1367       C  0.56007431  0.67738131  0.85437488    -0.23600
C1368       C  0.57184995  0.68587010  0.82216875     0.18600
C1369       C  0.59477421  0.69977986  0.82369439     0.15800
C1370       C  0.60545834  0.70574077  0.85750566    -0.18700
C1371       C  0.60654540  0.70802128  0.79140147    -0.20500
C1372       C  0.59564702  0.70329474  0.75803745    -0.13000
C1373       C  0.57281305  0.69036505  0.75642526     0.03600
C1374       C  0.56102354  0.68127417  0.78858583    -0.25200
H1375       H  0.56126163  0.67697629  0.91238988     0.08700
H1376       H  0.54252041  0.66658221  0.85370970     0.12300
H1377       H  0.62296218  0.71692345  0.85870577     0.12200
H1378       H  0.62412555  0.71857709  0.79201747     0.12000
H1379       H  0.60506023  0.71049083  0.73361492     0.12500
H1380       H  0.54340281  0.67121555  0.78762425     0.14500
C1381       C  0.51611944  0.79707176  0.68438436    -0.05500
C1382       C  0.49664896  0.77672226  0.68050139    -0.05500
C1383       C  0.49693768  0.75780574  0.67956699    -0.23600
C1384       C  0.51671691  0.75901057  0.68264332     0.18600
C1385       C  0.53628470  0.77941369  0.68766773     0.15800
C1386       C  0.53584804  0.79826612  0.68858932    -0.18700
C1387       C  0.55607995  0.78072748  0.69078233    -0.20500
C1388       C  0.55659888  0.76205142  0.68797611    -0.13000
C1389       C  0.53734637  0.74176623  0.68217670     0.03600
C1390       C  0.51735795  0.74026553  0.68001553    -0.25200
H1391       H  0.48126469  0.77548178  0.67717938     0.08700
H1392       H  0.48178116  0.74231657  0.67579711     0.12300
H1393       H  0.55094105  0.81391145  0.69172088     0.12200
H1394       H  0.57119566  0.79623230  0.69475362     0.12000
H1395       H  0.57216373  0.76354356  0.68978420     0.12500
H1396       H  0.50243759  0.72466624  0.67540854     0.14500
C1397       C  0.56387085  0.69845686  0.55660115    -0.05500
C1398       C  0.57119639  0.71852878  0.53978852    -0.05500
C1399       C  0.57291664  0.72054988  0.50213796    -0.23600
C1400       C  0.56696741  0.70241864  0.48069578     0.18600
C1401       C  0.56092801  0.68249024  0.49739821     0.15800
C1402       C  0.55977866  0.68073589  0.53540037    -0.18700
C1403       C  0.55468524  0.66431189  0.47572879    -0.20500
C1404       C  0.55292334  0.66547543  0.43806690    -0.13000
C1405       C  0.55764254  0.68490137  0.42160012     0.03600
C1406       C  0.56555282  0.70354452  0.44294267    -0.25200
H1407       H  0.57460577  0.73244023  0.55567879     0.08700
H1408       H  0.57775947  0.73598094  0.48974172     0.12300
H1409       H  0.55405745  0.66518697  0.54819960     0.12200
H1410       H  0.55014214  0.64894192  0.48801923     0.12000
H1411       H  0.54690832  0.65093880  0.42204213     0.12500
H1412       H  0.56933584  0.71863829  0.43042878     0.14500
C1413       C  0.41453165  0.55509843  0.64739212    -0.05500
C1414       C  0.43261301  0.55361047  0.65448063    -0.05500
C1415       C  0.45353847  0.57232650  0.65631721    -0.23600
C1416       C  0.45669563  0.59282085  0.65106993     0.18600
C1417       C  0.43856994  0.59442617  0.64379804     0.15800
C1418       C  0.41764188  0.57558999  0.64208428    -0.18700
C1419       C  0.44164831  0.61486165  0.63854701    -0.20500
C1420       C  0.46247184  0.63359161  0.64089771    -0.13000
C1421       C  0.48057681  0.63222547  0.64854798     0.03600
C1422       C  0.47760796  0.61174124  0.65330938    -0.25200
H1423       H  0.43055946  0.53796630  0.65880929     0.08700
H1424       H  0.46722398  0.57077779  0.66196833     0.12300
H1425       H  0.40377825  0.57690081  0.63667450     0.12200
H1426       H  0.42793967  0.61637380  0.63288700     0.12000
H1427       H  0.46437563  0.64920625  0.63709072     0.12500
H1428       H  0.49148640  0.61053521  0.65920616     0.14500
C1429       C  0.14092015  0.47653474  0.20811738    -0.05500
C1430       C  0.13798197  0.48776543  0.17996737    -0.05500
C1431       C  0.13312871  0.47948070  0.14469138    -0.23600
C1432       C  0.13154483  0.45998070  0.13674293     0.18600
C1433       C  0.13339854  0.44798996  0.16518707     0.15800
C1434       C  0.13777552  0.45619921  0.20083982    -0.18700
C1435       C  0.13193990  0.42855116  0.15713243    -0.20500
C1436       C  0.12950774  0.42148657  0.12119454    -0.13000
C1437       C  0.12854169  0.43372675  0.09258412     0.03600
C1438       C  0.12907964  0.45275900  0.10067757    -0.25200
H1439       H  0.14035398  0.50346954  0.18497904     0.08700
H1440       H  0.13158187  0.48881629  0.12334062     0.12300
H1441       H  0.14030688  0.44756199  0.22227677     0.12200
H1442       H  0.13324779  0.41908761  0.17852578     0.12000
H1443       H  0.12897294  0.40669764  0.11568903     0.12500
H1444       H  0.12814428  0.46223724  0.07886543     0.14500
C1445       C  0.22566982  0.50178710  0.27655206    -0.05500
C1446       C  0.22148813  0.48068672  0.27642313    -0.05500
C1447       C  0.23850797  0.47741678  0.27411286    -0.23600
C1448       C  0.25998688  0.49521635  0.27210281     0.18600
C1449       C  0.26436109  0.51652690  0.27064620     0.15800
C1450       C  0.24709620  0.51968650  0.27260315    -0.18700
C1451       C  0.28596890  0.53426581  0.26870990    -0.20500
C1452       C  0.30307873  0.53091275  0.26988462    -0.13000
C1453       C  0.29875355  0.50978992  0.27284760     0.03600
C1454       C  0.27716727  0.49201113  0.27296652    -0.25200
H1455       H  0.20505106  0.46666696  0.27911527     0.08700
H1456       H  0.23491604  0.46099594  0.27499777     0.12300
H1457       H  0.25040630  0.53601228  0.27264276     0.12200
H1458       H  0.28963864  0.55070373  0.26737656     0.12000
H1459       H  0.31967076  0.54485051  0.26963562     0.12500
H1460       H  0.27370410  0.47565830  0.27511468     0.14500
C1461       C  0.14446939  0.47000346  0.75609226    -0.05500
C1462       C  0.12795731  0.44788101  0.75775827    -0.05500
C1463       C  0.12176654  0.43697969  0.79114269    -0.23600
C1464       C  0.13194917  0.44805600  0.82343997     0.18600
C1465       C  0.14773035  0.47058197  0.82224323     0.15800
C1466       C  0.15386715  0.48139535  0.78864511    -0.18700
C1467       C  0.15760962  0.48178153  0.85456603    -0.20500
C1468       C  0.15247935  0.47062533  0.88762559    -0.13000
C1469       C  0.13757624  0.44806372  0.88892411     0.03600
C1470       C  0.12706028  0.43690929  0.85674306    -0.25200
H1471       H  0.12039116  0.43881090  0.73312089     0.08700
H1472       H  0.10943798  0.41976610  0.79159122     0.12300
H1473       H  0.16647914  0.49853187  0.78777908     0.12200
H1474       H  0.16960154  0.49908574  0.85419456     0.12000
H1475       H  0.16065880  0.47957282  0.91208545     0.12500
H1476       H  0.11531252  0.41954609  0.85754442     0.14500
C1477       C  0.29988735  0.50631556  0.65765421    -0.05500
C1478       C  0.30308958  0.52694951  0.66121390    -0.05500
C1479       C  0.28531507  0.52921316  0.66336359    -0.23600
C1480       C  0.26402613  0.51086700  0.66191050     0.18600
C1481       C  0.26065822  0.49002312  0.65875206     0.15800
C1482       C  0.27858522  0.48788047  0.65681619    -0.18700
C1483       C  0.23940387  0.47167574  0.65706083    -0.20500
C1484       C  0.22162144  0.47393453  0.65809410    -0.13000
C1485       C  0.22475788  0.49455610  0.66106620     0.03600
C1486       C  0.24605427  0.51299899  0.66315235    -0.25200
H1487       H  0.31936918  0.54138904  0.66197141     0.08700
H1488       H  0.28822026  0.54531623  0.66580780     0.12300
H1489       H  0.27593754  0.47188348  0.65412582     0.12200
H1490       H  0.23652766  0.45558211  0.65461330     0.12000
H1491       H  0.20537142  0.45950758  0.65639064     0.12500
H1492       H  0.24865255  0.52899863  0.66530130     0.14500
C1493       C  0.17533379  0.50317931  0.41168181    -0.05500
C1494       C  0.19553762  0.51632877  0.42924013    -0.05500
C1495       C  0.19716293  0.51668533  0.46688161    -0.23600
C1496       C  0.17861295  0.50386260  0.48794393     0.18600
C1497       C  0.15814812  0.49027909  0.47099341     0.15800
C1498       C  0.15660463  0.48997442  0.43274242    -0.18700
C1499       C  0.13970060  0.47751908  0.49276911    -0.20500
C1500       C  0.14157016  0.47840755  0.53081737    -0.13000
C1501       C  0.16190029  0.49210416  0.54758525     0.03600
C1502       C  0.18031833  0.50465999  0.52579244    -0.25200
H1503       H  0.21022615  0.52664640  0.41381777     0.08700
H1504       H  0.21295630  0.52715931  0.47953868     0.12300
H1505       H  0.14094784  0.47979090  0.41951312     0.12200
H1506       H  0.12383979  0.46699095  0.48040661     0.12000
H1507       H  0.12713619  0.46863080  0.54708084     0.12500
H1508       H  0.19613608  0.51527420  0.53831900     0.14500
C1509       C  0.12494223  0.67805051  0.76506295    -0.05500
C1510       C  0.11841855  0.69292784  0.76497639    -0.05500
C1511       C  0.11491900  0.70020812  0.79768904    -0.23600
C1512       C  0.11805988  0.69284538  0.83100398     0.18600
C1513       C  0.12396577  0.67737144  0.83122846     0.15800
C1514       C  0.12715729  0.66995972  0.79836751    -0.18700
C1515       C  0.12735246  0.67009810  0.86432497    -0.20500
C1516       C  0.12539539  0.67841464  0.89696403    -0.13000
C1517       C  0.11991822  0.69408359  0.89717418     0.03600
C1518       C  0.11597150  0.70105636  0.86404771    -0.25200
H1519       H  0.11679489  0.69953472  0.73966081     0.08700
H1520       H  0.11037335  0.71204860  0.79693857     0.12300
H1521       H  0.13224864  0.65852944  0.79879338     0.12200
H1522       H  0.13187757  0.65823796  0.86496091     0.12000
H1523       H  0.12840109  0.67270830  0.92212428     0.12500
H1524       H  0.11161269  0.71304808  0.86395457     0.14500
C1525       C  0.14761461  0.61054534  0.67272796    -0.05500
C1526       C  0.12833719  0.59049883  0.66538992    -0.05500
C1527       C  0.12865999  0.57160431  0.66237984    -0.23600
C1528       C  0.14829336  0.57254535  0.66650846     0.18600
C1529       C  0.16765471  0.59264748  0.67427638     0.15800
C1530       C  0.16715119  0.61138738  0.67751969    -0.18700
C1531       C  0.18734565  0.59381797  0.67826358    -0.20500
C1532       C  0.18792880  0.57522226  0.67455317    -0.13000
C1533       C  0.16884458  0.55512207  0.66687445     0.03600
C1534       C  0.14900183  0.55384652  0.66283487    -0.25200
H1535       H  0.11309826  0.58948766  0.66153157     0.08700
H1536       H  0.11364350  0.55634248  0.65645924     0.12300
H1537       H  0.18213380  0.62675458  0.68317575     0.12200
H1538       H  0.20231572  0.60913320  0.68414917     0.12000
H1539       H  0.20338236  0.57659044  0.67774299     0.12500
H1540       H  0.13419045  0.53838800  0.65691478     0.14500
C1541       C  0.21157151  0.72518597  0.68389906    -0.05500
C1542       C  0.23018582  0.72418564  0.68724880    -0.05500
C1543       C  0.25097853  0.74309926  0.68556865    -0.23600
C1544       C  0.25349935  0.76334239  0.68057811     0.18600
C1545       C  0.23486336  0.76458739  0.67859148     0.15800
C1546       C  0.21403796  0.74552028  0.68032063    -0.18700
C1547       C  0.23736948  0.78482913  0.67384037    -0.20500
C1548       C  0.25810405  0.80358095  0.66978558    -0.13000
C1549       C  0.27670433  0.80244380  0.67046970     0.03600
C1550       C  0.27428978  0.78227351  0.67658560    -0.25200
H1551       H  0.22867664  0.70869781  0.69007785     0.08700
H1552       H  0.26507409  0.74184065  0.68735911     0.12300
H1553       H  0.19976968  0.74646941  0.67789471     0.12200
H1554       H  0.22327345  0.78610536  0.67251602     0.12000
H1555       H  0.25955415  0.81894540  0.66538247     0.12500
H1556       H  0.28853140  0.78121681  0.67737656     0.14500
C1557       C  0.12296007  0.67735330  0.22575505    -0.05500
C1558       C  0.11361947  0.68979547  0.22458172    -0.05500
C1559       C  0.10803059  0.69483042  0.19131909    -0.23600
C1560       C  0.11179865  0.68755155  0.15880701     0.18600
C1561       C  0.11981469  0.67379026  0.15992375     0.15800
C1562       C  0.12515186  0.66862133  0.19341673    -0.18700
C1563       C  0.12358579  0.66650267  0.12743467    -0.20500
C1564       C  0.12072928  0.67388166  0.09412675    -0.13000
C1565       C  0.11397667  0.68856594  0.09283882     0.03600
C1566       C  0.10879664  0.69473514  0.12524864    -0.25200
H1567       H  0.11181760  0.69668989  0.24917251     0.08700
H1568       H  0.10172679  0.70524716  0.19093452     0.12300
H1569       H  0.13225486  0.65889923  0.19410104     0.12200
H1570       H  0.12954614  0.65579123  0.12780971     0.12000
H1571       H  0.12458108  0.66872465  0.06943280     0.12500
H1572       H  0.10336416  0.70588576  0.12446599     0.14500
C1573       C  0.13984525  0.67166601  0.56271023    -0.05500
C1574       C  0.11964135  0.65808980  0.54549158    -0.05500
C1575       C  0.11782028  0.65835112  0.50751733    -0.23600
C1576       C  0.13617153  0.67224791  0.48625609     0.18600
C1577       C  0.15631495  0.68647921  0.50372637     0.15800
C1578       C  0.15797969  0.68610434  0.54156835    -0.18700
C1579       C  0.17474338  0.70045346  0.48308428    -0.20500
C1580       C  0.17356610  0.69969852  0.44535789    -0.13000
C1581       C  0.15392904  0.68507791  0.42736483     0.03600
C1582       C  0.13503357  0.67174066  0.44796252    -0.25200
H1583       H  0.10544149  0.64684488  0.56126758     0.08700
H1584       H  0.10219522  0.64736295  0.49475464     0.12300
H1585       H  0.17362955  0.69680142  0.55455751     0.12200
H1586       H  0.19024991  0.71157417  0.49611241     0.12000
H1587       H  0.18828155  0.71029077  0.43016038     0.12500
H1588       H  0.11981534  0.66040231  0.43433781     0.14500
C1589       C  0.15741670  0.62300725  0.31477908    -0.05500
C1590       C  0.14047696  0.60400978  0.33114324    -0.05500
C1591       C  0.14081251  0.58512547  0.33173149    -0.23600
C1592       C  0.15801771  0.58489809  0.31567687     0.18600
C1593       C  0.17508817  0.60389748  0.29892266     0.15800
C1594       C  0.17469795  0.62284068  0.29863754    -0.18700
C1595       C  0.19226749  0.60362371  0.28281056    -0.20500
C1596       C  0.19250918  0.58467224  0.28328086    -0.13000
C1597       C  0.17554552  0.56569795  0.29971800     0.03600
C1598       C  0.15836926  0.56595221  0.31598800    -0.25200
H1599       H  0.12705224  0.60381487  0.34384325     0.08700
H1600       H  0.12762138  0.57070945  0.34471505     0.12300
H1601       H  0.18781088  0.63741662  0.28585076     0.12200
H1602       H  0.20547477  0.61802879  0.26983224     0.12000
H1603       H  0.20589736  0.58481618  0.27053802     0.12500
H1604       H  0.14525904  0.55141025  0.32885914     0.14500
C1605       C  0.21156704  0.74027366  0.29555471    -0.05500
C1606       C  0.21107967  0.75896600  0.30118457    -0.05500
C1607       C  0.23016206  0.77959102  0.29879592    -0.23600
C1608       C  0.25001005  0.78181004  0.29074836     0.18600
C1609       C  0.25048729  0.76307575  0.28411183     0.15800
C1610       C  0.23128836  0.74248658  0.28642040    -0.18700
C1611       C  0.27026624  0.76518131  0.27621118    -0.20500
C1612       C  0.28954797  0.78562039  0.27596196    -0.13000
C1613       C  0.28936574  0.80430763  0.28334485     0.03600
C1614       C  0.26946268  0.80234994  0.29010782    -0.25200
H1615       H  0.19603725  0.75762058  0.30829096     0.08700
H1616       H  0.22946778  0.79375889  0.30390794     0.12300
H1617       H  0.23181939  0.72815707  0.28199111     0.12200
H1618       H  0.27088882  0.75098606  0.27094386     0.12000
H1619       H  0.30469381  0.78677159  0.27056736     0.12500
H1620       H  0.26918943  0.81669170  0.29594680     0.14500
loop_ 
_geom_bond_atom_site_label_1 
_geom_bond_atom_site_label_2 
_geom_bond_distance 
_geom_bond_site_symmetry_2 
_ccdc_geom_bond_type 
In1           O3   2.243       .  S
In1           O4   2.234       .  S
In1          O12   2.222       .  S
In1           O6   2.260       .  S
In1           O8   2.283       .  S
In1           O9   2.232       .  S
In1          O10   2.214       .  S
In1          O13   2.244       .  S
C2            O8   1.266       .  A
C2           O10   1.258       .  A
C2         C1581   1.480       .  S
O3           C11   1.263       .  A
O4           C11   1.262       .  A
C5           O12   1.258       .  A
C5            O6   1.264       .  A
C5         C1557   1.474       .  S
C7            O9   1.263       .  A
C7           O13   1.263       .  A
C7         C1605   1.475       .  S
C11        C1589   1.475       .  S
In14         O16   2.241       .  S
In14         O17   2.245       .  S
In14         O25   2.239       .  S
In14         O19   2.269       .  S
In14         O21   2.286       .  S
In14         O22   2.220       .  S
In14         O23   2.222       .  S
In14         O26   2.267       .  S
C15          O21   1.265       .  A
C15          O23   1.257       .  A
C15        C1573   1.481       .  S
O16          C24   1.262       .  A
O17          C24   1.262       .  A
C18          O25   1.258       .  A
C18          O19   1.262       .  A
C18        C1509   1.480       .  S
C20          O22   1.260       .  A
C20          O26   1.264       .  A
C20        C1525   1.478       .  S
C24        C1541   1.477       .  S
In27         O29   2.241       .  S
In27         O30   2.226       .  S
In27         O38   2.226       .  S
In27         O32   2.268       .  S
In27         O34   2.280       .  S
In27         O35   2.239       .  S
In27         O36   2.205       .  S
In27         O39   2.235       .  S
C28          O34   1.268       .  A
C28          O36   1.259       .  A
C28        C1501   1.481       .  S
O29          C37   1.263       .  A
O30          C37   1.263       .  A
C31          O38   1.259       .  A
C31          O32   1.268       .  A
C31        C1461   1.482       .  S
C33          O35   1.264       .  A
C33          O39   1.264       .  A
C33        C1485   1.477       .  S
C37        C1533   1.474       .  S
In40         O42   2.210       .  S
In40         O43   2.242       .  S
In40         O51   2.226       .  S
In40         O45   2.272       .  S
In40         O47   2.282       .  S
In40         O48   2.230       .  S
In40         O49   2.207       .  S
In40         O52   2.226       .  S
C41          O47   1.268       .  A
C41          O49   1.259       .  A
C41        C1493   1.482       .  S
O42          C50   1.260       .  A
O43          C50   1.264       .  A
C44          O51   1.258       .  A
C44          O45   1.265       .  A
C44        C1429   1.479       .  S
C46          O48   1.265       .  A
C46          O52   1.266       .  A
C46        C1597   1.474       .  S
C50        C1445   1.468       .  S
In53         O55   2.250       .  S
In53         O56   2.230       .  S
In53         O64   2.245       .  S
In53         O58   2.257       .  S
In53         O60   2.269       .  S
In53         O61   2.241       .  S
In53         O62   2.233       .  S
In53         O65   2.225       .  S
C54          O60   1.260       .  A
C54          O62   1.254       .  A
C54        C1397   1.473       .  S
O55          C63   1.263       .  A
O56          C63   1.260       .  A
C57          O64   1.258       .  A
C57          O58   1.261       .  A
C57        C1373   1.478       .  S
C59          O61   1.262       .  A
C59          O65   1.262       .  A
C59        C1389   1.471       .  S
C63        C1421   1.475       .  S
In66         O68   2.240       .  S
In66         O69   2.236       .  S
In66         O77   2.223       .  S
In66         O71   2.289       .  S
In66         O73   2.291       .  S
In66         O74   2.232       .  S
In66         O75   2.240       .  S
In66         O78   2.240       .  S
C67          O73   1.264       .  A
C67          O75   1.256       .  A
C67        C1349   1.482       .  S
O68          C76   1.264       .  A
O69          C76   1.263       .  A
C70          O77   1.257       .  A
C70          O71   1.267       .  A
C70        C1341   1.485       .  S
C72          O74   1.262       .  A
C72          O78   1.262       .  A
C72        C1413   1.474       .  S
C76        C1477   1.477       .  S
In79         O81   2.238       .  S
In79         O82   2.251       .  S
In79         O90   2.208       .  S
In79         O84   2.265       .  S
In79         O86   2.266       .  S
In79         O87   2.231       .  S
In79         O88   2.239       .  S
In79         O91   2.237       .  S
C80          O86   1.256       .  A
C80          O88   1.255       .  A
C80        C1405   1.474       .  S
O81          C89   1.262       .  A
O82          C89   1.264       .  A
C83          O90   1.256       .  A
C83          O84   1.261       .  A
C83        C1293   1.469       .  S
C85          O87   1.264       .  A
C85          O91   1.262       .  A
C85        C1325   1.473       .  S
C89        C1301   1.480       .  S
In92         O94   2.256       .  S
In92         O95   2.217       .  S
In92        O103   2.252       .  S
In92         O97   2.269       .  S
In92         O99   2.285       .  S
In92        O100   2.241       .  S
In92        O101   2.236       .  S
In92        O104   2.224       .  S
C93          O99   1.262       .  A
C93         O101   1.256       .  A
C93        C1357   1.484       .  S
O94         C102   1.265       .  A
O95         C102   1.259       .  A
C96         O103   1.258       .  A
C96          O97   1.262       .  A
C96        C1269   1.485       .  S
C98         O100   1.261       .  A
C98         O104   1.263       .  A
C98        C1453   1.470       .  S
C102       C1317   1.473       .  S
In105       O107   2.273       .  S
In105       O108   2.234       .  S
In105       O116   2.227       .  S
In105       O110   2.273       .  S
In105       O112   2.285       .  S
In105       O113   2.248       .  S
In105       O114   2.224       .  S
In105       O117   2.250       .  S
C106        O112   1.263       .  A
C106        O114   1.257       .  A
C106       C1237   1.478       .  S
O107        C115   1.263       .  A
O108        C115   1.260       .  A
C109        O116   1.257       .  A
C109        O110   1.262       .  A
C109       C1229   1.478       .  S
C111        O113   1.263       .  A
C111        O117   1.263       .  A
C111       C1549   1.480       .  S
C115       C1261   1.482       .  S
In118       O120   2.221       .  S
In118       O121   2.235       .  S
In118       O129   2.222       .  S
In118       O123   2.281       .  S
In118       O125   2.301       .  S
In118       O126   2.232       .  S
In118       O127   2.209       .  S
In118       O130   2.245       .  S
C119        O125   1.271       .  A
C119        O127   1.260       .  A
C119       C1213   1.491       .  S
O120        C128   1.264       .  A
O121        C128   1.265       .  A
C122        O129   1.260       .  A
C122        O123   1.270       .  A
C122       C1189   1.486       .  S
C124        O126   1.264       .  A
C124        O130   1.265       .  A
C124       C1253   1.480       .  S
C128       C1381   1.471       .  S
In131       O133   2.244       .  S
In131       O134   2.231       .  S
In131       O142   2.237       .  S
In131       O136   2.277       .  S
In131       O138   2.279       .  S
In131       O139   2.238       .  S
In131       O140   2.239       .  S
In131       O143   2.267       .  S
C132        O138   1.262       .  A
C132        O140   1.256       .  A
C132       C1245   1.480       .  S
O133        C141   1.263       .  A
O134        C141   1.262       .  A
C135        O142   1.257       .  A
C135        O136   1.261       .  A
C135       C1165   1.482       .  S
C137        O139   1.260       .  A
C137        O143   1.263       .  A
C137       C1173   1.482       .  S
C141       C1613   1.474       .  S
In144       O146   2.247       .  S
In144       O147   2.242       .  S
In144       O155   2.227       .  S
In144       O149   2.289       .  S
In144       O151   2.294       .  S
In144       O152   2.254       .  S
In144       O153   2.219       .  S
In144       O156   2.228       .  S
C145        O151   1.272       .  A
C145        O153   1.261       .  A
C145       C1205   1.491       .  S
O146        C154   1.266       .  A
O147        C154   1.266       .  A
C148        O155   1.261       .  A
C148        O149   1.271       .  A
C148       C1141   1.489       .  S
C150        O152   1.267       .  A
C150        O156   1.263       .  A
C150       C1309   1.481       .  S
C154       C1181   1.484       .  S
In157       O159   2.254       .  S
In157       O160   2.222       .  S
In157       O168   2.222       .  S
In157       O162   2.268       .  S
In157       O164   2.275       .  S
In157       O165   2.236       .  S
In157       O166   2.218       .  S
In157       O169   2.240       .  S
C158        O164   1.265       .  A
C158        O166   1.258       .  A
C158       C1117   1.480       .  S
O159        C167   1.264       .  A
O160        C167   1.260       .  A
C161        O168   1.258       .  A
C161        O162   1.264       .  A
C161       C1077   1.478       .  S
C163        O165   1.260       .  A
C163        O169   1.262       .  A
C163       C1093   1.473       .  S
C167       C1133   1.475       .  S
In170       O172   2.249       .  S
In170       O173   2.236       .  S
In170       O181   2.234       .  S
In170       O175   2.267       .  S
In170       O177   2.289       .  S
In170       O178   2.219       .  S
In170       O179   2.208       .  S
In170       O182   2.256       .  S
C171        O177   1.265       .  A
C171        O179   1.257       .  A
C171       C1053   1.481       .  S
O172        C180   1.262       .  A
O173        C180   1.259       .  A
C174        O181   1.259       .  A
C174        O175   1.263       .  A
C174       C1029   1.481       .  S
C176        O178   1.260       .  A
C176        O182   1.264       .  A
C176       C1125   1.475       .  S
C180       C1061   1.474       .  S
In183       O185   2.206       .  S
In183       O186   2.242       .  S
In183       O194   2.203       .  S
In183       O188   2.268       .  S
In183       O190   2.274       .  S
In183       O191   2.227       .  S
In183       O192   2.197       .  S
In183       O195   2.235       .  S
C184        O190   1.271       .  A
C184        O192   1.261       .  A
C184       C1109   1.480       .  S
O185        C193   1.262       .  A
O186        C193   1.267       .  A
C187        O194   1.260       .  A
C187        O188   1.269       .  A
C187        C989   1.479       .  S
C189        O191   1.265       .  A
C189        O195   1.266       .  A
C189       C1013   1.476       .  S
C193        C997   1.471       .  S
In196       O198   2.251       .  S
In196       O199   2.230       .  S
In196       O207   2.212       .  S
In196       O201   2.274       .  S
In196       O203   2.288       .  S
In196       O204   2.231       .  S
In196       O205   2.203       .  S
In196       O208   2.247       .  S
C197        O203   1.266       .  A
C197        O205   1.257       .  A
C197       C1045   1.481       .  S
O198        C206   1.265       .  A
O199        C206   1.262       .  A
C200        O207   1.257       .  A
C200        O201   1.264       .  A
C200        C949   1.478       .  S
C202        O204   1.261       .  A
C202        O208   1.261       .  A
C202        C973   1.473       .  S
C206       C1021   1.478       .  S
In209       O211   2.248       .  S
In209       O212   2.217       .  S
In209       O220   2.243       .  S
In209       O214   2.256       .  S
In209       O216   2.288       .  S
In209       O217   2.244       .  S
In209       O218   2.213       .  S
In209       O221   2.226       .  S
C210        O216   1.264       .  A
C210        O218   1.256       .  A
C210        C917   1.480       .  S
O211        C219   1.264       .  A
O212        C219   1.259       .  A
C213        O220   1.258       .  A
C213        O214   1.261       .  A
C213        C901   1.478       .  S
C215        O217   1.261       .  A
C215        O221   1.262       .  A
C215       C1005   1.472       .  S
C219        C933   1.471       .  S
In222       O224   2.240       .  S
In222       O225   2.240       .  S
In222       O233   2.235       .  S
In222       O227   2.287       .  S
In222       O229   2.295       .  S
In222       O230   2.229       .  S
In222       O231   2.231       .  S
In222       O234   2.246       .  S
C223        O229   1.263       .  A
C223        O231   1.256       .  A
C223        C877   1.484       .  S
O224        C232   1.263       .  A
O225        C232   1.263       .  A
C226        O233   1.257       .  A
C226        O227   1.264       .  A
C226        C853   1.485       .  S
C228        O230   1.262       .  A
C228        O234   1.264       .  A
C228        C941   1.475       .  S
C232        C885   1.477       .  S
In235       O237   2.229       .  S
In235       O238   2.235       .  S
In235       O246   2.219       .  S
In235       O240   2.264       .  S
In235       O242   2.279       .  S
In235       O243   2.243       .  S
In235       O244   2.224       .  S
In235       O247   2.236       .  S
C236        O242   1.264       .  A
C236        O244   1.258       .  A
C236        C925   1.479       .  S
O237        C245   1.263       .  A
O238        C245   1.264       .  A
C239        O246   1.260       .  A
C239        O240   1.266       .  A
C239        C829   1.477       .  S
C241        O243   1.262       .  A
C241        O247   1.261       .  A
C241        C845   1.475       .  S
C245       C1101   1.473       .  S
In248       O250   2.245       .  S
In248       O251   2.230       .  S
In248       O259   2.233       .  S
In248       O253   2.284       .  S
In248       O255   2.300       .  S
In248       O256   2.229       .  S
In248       O257   2.227       .  S
In248       O260   2.245       .  S
C249        O255   1.264       .  A
C249        O257   1.255       .  A
C249        C869   1.486       .  S
O250        C258   1.265       .  A
O251        C258   1.261       .  A
C252        O259   1.255       .  A
C252        O253   1.264       .  A
C252        C797   1.483       .  S
C254        O256   1.261       .  A
C254        O260   1.264       .  A
C254        C805   1.475       .  S
C258        C837   1.475       .  S
In261       O263   2.249       .  S
In261       O264   2.226       .  S
In261       O272   2.230       .  S
In261       O266   2.285       .  S
In261       O268   2.310       .  S
In261       O269   2.230       .  S
In261       O270   2.213       .  S
In261       O273   2.233       .  S
C262        O268   1.269       .  A
C262        O270   1.256       .  A
C262        C765   1.487       .  S
O263        C271   1.265       .  A
O264        C271   1.263       .  A
C265        O272   1.258       .  A
C265        O266   1.269       .  A
C265        C749   1.487       .  S
C267        O269   1.264       .  A
C267        O273   1.263       .  A
C267       C1069   1.473       .  S
C271        C773   1.477       .  S
In274       O276   2.249       .  S
In274       O277   2.219       .  S
In274       O285   2.250       .  S
In274       O279   2.277       .  S
In274       O281   2.293       .  S
In274       O282   2.222       .  S
In274       O283   2.238       .  S
In274       O286   2.257       .  S
C275        O281   1.264       .  A
C275        O283   1.256       .  A
C275        C757   1.488       .  S
O276        C284   1.263       .  A
O277        C284   1.260       .  A
C278        O285   1.255       .  A
C278        O279   1.262       .  A
C278        C717   1.484       .  S
C280        O282   1.260       .  A
C280        O286   1.265       .  A
C280        C733   1.477       .  S
C284        C965   1.471       .  S
In287       O289   2.232       .  S
In287       O290   2.240       .  S
In287       O298   2.206       .  S
In287       O292   2.269       .  S
In287       O294   2.274       .  S
In287       O295   2.246       .  S
In287       O296   2.197       .  S
In287       O299   2.230       .  S
C288        O294   1.271       .  A
C288        O296   1.262       .  A
C288        C701   1.482       .  S
O289        C297   1.265       .  A
O290        C297   1.268       .  A
C291        O298   1.262       .  A
C291        O292   1.271       .  A
C291        C685   1.480       .  S
C293        O295   1.268       .  A
C293        O299   1.264       .  A
C293        C893   1.480       .  S
C297        C725   1.480       .  S
In300       O302   2.237       .  S
In300       O303   2.250       .  S
In300       O311   2.228       .  S
In300       O305   2.256       .  S
In300       O307   2.286       .  S
In300       O308   2.226       .  S
In300       O309   2.211       .  S
In300       O312   2.247       .  S
C301        O307   1.265       .  A
C301        O309   1.258       .  A
C301        C693   1.482       .  S
O302        C310   1.261       .  A
O303        C310   1.263       .  A
C304        O311   1.259       .  A
C304        O305   1.265       .  A
C304        C661   1.478       .  S
C306        O308   1.262       .  A
C306        O312   1.264       .  A
C306        C781   1.476       .  S
C310        C813   1.477       .  S
In313       O315   2.242   1_556  S
In313       O316   2.270   1_556  S
In313       O324   2.201       .  S
In313       O318   2.281       .  S
In313       O320   2.273       .  S
In313       O321   2.257       .  S
In313       O322   2.228       .  S
In313       O325   2.245       .  S
C314        O320   1.267       .  A
C314        O322   1.262       .  A
C314        C645   1.486       .  S
O315        C323   1.262       .  A
O316        C323   1.266       .  A
C317        O324   1.261       .  A
C317        O318   1.269       .  A
C317        C629   1.481       .  S
C319        O321   1.267       .  A
C319        O325   1.264       .  A
C319       C1197   1.486       .  S
C323       C1149   1.489       .  S
In326       O328   2.245       .  S
In326       O329   2.228       .  S
In326       O337   2.203   1_556  S
In326       O331   2.290       .  S
In326       O333   2.300       .  S
In326       O334   2.217   1_556  S
In326       O335   2.206       .  S
In326       O338   2.240   1_556  S
C327        O333   1.270       .  A
C327        O335   1.258       .  A
C327        C653   1.488       .  S
O328        C336   1.265       .  A
O329        C336   1.262       .  A
C330        O337   1.259   1_556  A
C330        O331   1.270       .  A
C330        C613   1.482   1_556  S
C332        O334   1.263       .  A
C332        O338   1.264       .  A
C332       C1285   1.470       .  S
C336       C1365   1.476       .  S
In339       O341   2.254       .  S
In339       O342   2.228       .  S
In339       O350   2.210       .  S
In339       O344   2.286       .  S
In339       O346   2.289       .  S
In339       O347   2.229   1_556  S
In339       O348   2.217       .  S
In339       O351   2.267   1_556  S
C340        O346   1.264       .  A
C340        O348   1.257       .  A
C340        C597   1.482       .  S
O341        C349   1.265       .  A
O342        C349   1.261       .  A
C343        O350   1.257       .  A
C343        O344   1.265       .  A
C343        C581   1.479       .  S
C345        O347   1.258       .  A
C345        O351   1.262       .  A
C345        C981   1.478       .  S
C349       C1085   1.476       .  S
In352       O354   2.254   1_556  S
In352       O355   2.235   1_556  S
In352       O363   2.218       .  S
In352       O357   2.278       .  S
In352       O359   2.285       .  S
In352       O360   2.239       .  S
In352       O361   2.214       .  S
In352       O364   2.265       .  S
C353        O359   1.265       .  A
C353        O361   1.258       .  A
C353        C605   1.482       .  S
O354        C362   1.264       .  A
O355        C362   1.263       .  A
C356        O363   1.258       .  A
C356        O357   1.265       .  A
C356        C621   1.480       .  S
C358        O360   1.261       .  A
C358        O364   1.262       .  A
C358        C821   1.481       .  S
C362        C909   1.479       .  S
In365       O367   2.274       .  S
In365       O368   2.236       .  S
In365       O376   2.226       .  S
In365       O370   2.256       .  S
In365       O372   2.278       .  S
In365       O373   2.242   1_556  S
In365       O374   2.223       .  S
In365       O377   2.262   1_556  S
C366        O372   1.262       .  A
C366        O374   1.257       .  A
C366        C565   1.479       .  S
O367        C375   1.262       .  A
O368        C375   1.259       .  A
C369        O376   1.260       .  A
C369        O370   1.263       .  A
C369        C549   1.476       .  S
C371        O373   1.261       .  A
C371        O377   1.261       .  A
C371       C1157   1.481       .  S
C375       C1221   1.482       .  S
In378       O380   2.245   1_556  S
In378       O381   2.242   1_556  S
In378       O389   2.206       .  S
In378       O383   2.274   1_556  S
In378       O385   2.282       .  S
In378       O386   2.226       .  S
In378       O387   2.220   1_556  S
In378       O390   2.254       .  S
C379        O385   1.263       .  A
C379        O387   1.257   1_556  A
C379        C573   1.480       .  S
O380        C388   1.261       .  A
O381        C388   1.259       .  A
C382        O389   1.259       .  A
C382        O383   1.265   1_556  A
C382        C589   1.477       .  S
C384        O386   1.261       .  A
C384        O390   1.264       .  A
C384       C1517   1.476       .  S
C388       C1565   1.475       .  S
In391       O393   2.271   1_556  S
In391       O394   2.244   1_556  S
In391       O402   2.223       .  S
In391       O396   2.269       .  S
In391       O398   2.267       .  S
In391       O399   2.241       .  S
In391       O400   2.231       .  S
In391       O403   2.268       .  S
C392        O398   1.262       .  A
C392        O400   1.258       .  A
C392        C541   1.478       .  S
O393        C401   1.261       .  A
O394        C401   1.259       .  A
C395        O402   1.260       .  A
C395        O396   1.262       .  A
C395        C517   1.479       .  S
C397        O399   1.260       .  A
C397        O403   1.262       .  A
C397       C1037   1.482       .  S
C401        C957   1.482       .  S
In404       O406   2.242       .  S
In404       O407   2.275       .  S
In404       O415   2.205       .  S
In404       O409   2.272       .  S
In404       O411   2.261       .  S
In404       O412   2.274   1_556  S
In404       O413   2.218       .  S
In404       O416   2.227   1_556  S
C405        O411   1.266       .  A
C405        O413   1.262       .  A
C405        C533   1.478       .  S
O406        C414   1.262       .  A
O407        C414   1.267       .  A
C408        O415   1.261       .  A
C408        O409   1.266       .  A
C408        C637   1.480       .  S
C410        O412   1.267       .  A
C410        O416   1.261       .  A
C410        C709   1.485       .  S
C414        C741   1.490       .  S
In417       O419   2.225       .  S
In417       O420   2.253       .  S
In417       O428   2.201       .  S
In417       O422   2.272       .  S
In417       O424   2.273       .  S
In417       O425   2.248   1_556  S
In417       O426   2.211       .  S
In417       O429   2.235   1_556  S
C418        O424   1.272       .  A
C418        O426   1.263       .  A
C418        C501   1.487       .  S
O419        C427   1.265       .  A
O420        C427   1.270       .  A
C421        O428   1.263       .  A
C421        O422   1.273       .  A
C421        C493   1.485       .  S
C423        O425   1.270       .  A
C423        O429   1.266       .  A
C423        C861   1.485       .  S
C427        C789   1.483       .  S
In430       O432   2.249   1_556  S
In430       O433   2.248   1_556  S
In430       O441   2.213       .  S
In430       O435   2.275       .  S
In430       O437   2.266       .  S
In430       O438   2.246       .  S
In430       O439   2.233       .  S
In430       O442   2.245       .  S
C431        O437   1.266       .  A
C431        O439   1.261       .  A
C431        C509   1.484       .  S
O432        C440   1.261       .  A
O433        C440   1.263       .  A
C434        O441   1.259       .  A
C434        O435   1.266       .  A
C434        C557   1.477       .  S
C436        O438   1.264       .  A
C436        O442   1.263       .  A
C436        C669   1.480       .  S
C440        C677   1.482       .  S
In443       O445   2.253   1_556  S
In443       O446   2.255   1_556  S
In443       O454   2.221       .  S
In443       O448   2.282       .  S
In443       O450   2.288       .  S
In443       O451   2.253       .  S
In443       O452   2.223       .  S
In443       O455   2.251       .  S
C444        O450   1.267       .  A
C444        O452   1.259       .  A
C444        C469   1.488       .  S
O445        C453   1.263       .  A
O446        C453   1.264       .  A
C447        O454   1.261       .  A
C447        O448   1.267       .  A
C447        C485   1.485       .  S
C449        O451   1.264       .  A
C449        O455   1.263       .  A
C449       C1333   1.484       .  S
C453       C1277   1.485       .  S
In456       O458   2.246       .  S
In456       O459   2.245       .  S
In456       O467   2.197       .  S
In456       O461   2.284       .  S
In456       O463   2.297       .  S
In456       O464   2.253   1_556  S
In456       O465   2.210       .  S
In456       O468   2.249   1_556  S
C457        O463   1.269       .  A
C457        O465   1.260       .  A
C457        C477   1.489       .  S
O458        C466   1.264       .  A
O459        C466   1.265       .  A
C460        O467   1.259       .  A
C460        O461   1.269       .  A
C460        C525   1.478       .  S
C462        O464   1.263       .  A
C462        O468   1.263       .  A
C462       C1437   1.483       .  S
C466       C1469   1.480       .  S
C469        C470   1.407       .  A
C469        C474   1.405       .  A
C470        C471   1.409       .  A
C470        H479   1.083       .  S
C471        C472   1.409       .  A
C471        H480   1.083       .  S
C472        C478   1.418       .  A
C472        C473   1.414       .  A
C473        C475   1.397       .  A
C473        C474   1.401       .  A
C474        H481   1.084       .  S
C475        C476   1.391       .  A
C475        H482   1.083       .  S
C476        C477   1.406       .  A
C476        H483   1.083       .  S
C477        C478   1.413       .  A
C478        H484   1.083       .  S
C485        C486   1.406       .  A
C485        C490   1.411       .  A
C486        C487   1.392       .  A
C486        H495   1.083       .  S
C487        C488   1.399       .  A
C487        H496   1.084       .  S
C488        C494   1.400       .  A
C488        C489   1.413       .  A
C489        C491   1.408       .  A
C489        C490   1.414       .  A
C490        H497   1.083       .  S
C491        C492   1.407       .  A
C491        H498   1.083       .  S
C492        C493   1.405       .  A
C492        H499   1.083       .  S
C493        C494   1.406       .  A
C494        H500   1.084       .  S
C501        C502   1.408       .  A
C501        C506   1.409       .  A
C502        C503   1.395       .  A
C502        H511   1.083       .  S
C503        C504   1.400       .  A
C503        H512   1.084       .  S
C504        C510   1.404       .  A
C504        C505   1.414       .  A
C505        C507   1.405       .  A
C505        C506   1.412       .  A
C506        H513   1.084       .  S
C507        C508   1.403       .  A
C507        H514   1.083       .  S
C508        C509   1.405       .  A
C508        H515   1.083       .  S
C509        C510   1.406       .  A
C510        H516   1.084       .  S
C517        C518   1.406       .  A
C517        C522   1.401       .  A
C518        C519   1.405   1_655  A
C518        H527   1.083   1_556  S
C519        C520   1.406       .  A
C519        H528   1.083   1_556  S
C520        C526   1.413       .  A
C520        C521   1.415       .  A
C521        C523   1.396       .  A
C521        C522   1.398   1_455  A
C522        H529   1.085       .  S
C523        C524   1.389       .  A
C523        H530   1.084       .  S
C524        C525   1.406       .  A
C524        H531   1.083       .  S
C525        C526   1.409       .  A
C526        H532   1.084       .  S
C533        C534   1.405       .  A
C533        C538   1.408       .  A
C534        C535   1.392       .  A
C534        H543   1.083       .  S
C535        C536   1.399       .  A
C535        H544   1.084       .  S
C536        C542   1.400       .  A
C536        C537   1.414       .  A
C537        C539   1.405       .  A
C537        C538   1.409       .  A
C538        H545   1.084       .  S
C539        C540   1.402       .  A
C539        H546   1.083       .  S
C540        C541   1.405       .  A
C540        H547   1.083       .  S
C541        C542   1.403       .  A
C542        H548   1.084       .  S
C549        C550   1.405       .  A
C549        C554   1.402       .  A
C550        C551   1.402   1_565  A
C550        H559   1.083       .  S
C551        C552   1.405       .  A
C551        H560   1.083       .  S
C552        C558   1.410       .  A
C552        C553   1.415       .  A
C553        C555   1.398       .  A
C553        C554   1.399   1_545  A
C554        H561   1.085       .  S
C555        C556   1.392       .  A
C555        H562   1.084       .  S
C556        C557   1.405       .  A
C556        H563   1.083       .  S
C557        C558   1.407       .  A
C558        H564   1.084       .  S
C565        C566   1.406       .  A
C565        C570   1.402       .  A
C566        C567   1.405       .  A
C566        H575   1.083       .  S
C567        C568   1.407       .  A
C567        H576   1.083       .  S
C568        C574   1.411       .  A
C568        C569   1.414       .  A
C569        C571   1.397   1_556  A
C569        C570   1.397       .  A
C570        H577   1.085   1_556  S
C571        C572   1.390       .  A
C571        H578   1.084       .  S
C572        C573   1.405   1_554  A
C572        H579   1.083       .  S
C573        C574   1.410       .  A
C574        H580   1.084       .  S
C581        C582   1.405       .  A
C581        C586   1.410       .  A
C582        C583   1.388       .  A
C582        H591   1.083       .  S
C583        C584   1.396   1_655  A
C583        H592   1.084   1_655  S
C584        C590   1.395       .  A
C584        C585   1.414       .  A
C585        C587   1.407   1_556  A
C585        C586   1.412   1_455  A
C586        H593   1.084   1_556  S
C587        C588   1.406       .  A
C587        H594   1.083       .  S
C588        C589   1.405   1_554  A
C588        H595   1.083       .  S
C589        C590   1.401       .  A
C590        H596   1.085       .  S
C597        C598   1.406       .  A
C597        C602   1.403       .  A
C598        C599   1.407       .  A
C598        H607   1.083       .  S
C599        C600   1.408       .  A
C599        H608   1.083       .  S
C600        C606   1.413       .  A
C600        C601   1.413       .  A
C601        C603   1.397       .  A
C601        C602   1.398       .  A
C602        H609   1.085       .  S
C603        C604   1.390       .  A
C603        H610   1.084       .  S
C604        C605   1.406       .  A
C604        H611   1.083       .  S
C605        C606   1.411       .  A
C606        H612   1.084       .  S
C613        C614   1.406       .  A
C613        C618   1.410   1_554  A
C614        C615   1.391       .  A
C614        H623   1.084       .  S
C615        C616   1.397       .  A
C615        H624   1.084       .  S
C616        C622   1.399       .  A
C616        C617   1.414   1_554  A
C617        C619   1.407       .  A
C617        C618   1.414       .  A
C618        H625   1.083       .  S
C619        C620   1.406       .  A
C619        H626   1.083       .  S
C620        C621   1.405       .  A
C620        H627   1.083       .  S
C621        C622   1.403   1_556  A
C622        H628   1.084       .  S
C629        C630   1.406       .  A
C629        C634   1.411       .  A
C630        C631   1.388   1_565  A
C630        H639   1.083       .  S
C631        C632   1.395       .  A
C631        H640   1.084       .  S
C632        C638   1.395       .  A
C632        C633   1.414       .  A
C633        C635   1.408       .  A
C633        C634   1.414   1_545  A
C634        H641   1.084       .  S
C635        C636   1.407       .  A
C635        H642   1.083       .  S
C636        C637   1.407       .  A
C636        H643   1.083       .  S
C637        C638   1.401       .  A
C638        H644   1.085       .  S
C645        C646   1.406       .  A
C645        C650   1.405       .  A
C646        C647   1.406       .  A
C646        H655   1.083   1_556  S
C647        C648   1.407       .  A
C647        H656   1.083   1_556  S
C648        C654   1.416       .  A
C648        C649   1.415       .  A
C649        C651   1.397       .  A
C649        C650   1.403       .  A
C650        H657   1.085       .  S
C651        C652   1.392       .  A
C651        H658   1.084       .  S
C652        C653   1.408       .  A
C652        H659   1.083       .  S
C653        C654   1.411       .  A
C654        H660   1.084       .  S
C661        C662   1.404       .  A
C661        C666   1.407       .  A
C662        C663   1.398       .  A
C662        H671   1.083       .  S
C663        C664   1.403       .  A
C663        H672   1.083       .  S
C664        C670   1.405       .  A
C664        C665   1.413       .  A
C665        C667   1.403       .  A
C665        C666   1.404       .  A
C666        H673   1.084       .  S
C667        C668   1.398       .  A
C667        H674   1.083       .  S
C668        C669   1.405       .  A
C668        H675   1.083       .  S
C669        C670   1.407       .  A
C670        H676   1.084       .  S
C677        C678   1.407       .  A
C677        C682   1.404       .  A
C678        C679   1.401       .  A
C678        H687   1.083       .  S
C679        C680   1.403       .  A
C679        H688   1.083       .  S
C680        C686   1.411       .  A
C680        C681   1.415       .  A
C681        C683   1.399       .  A
C681        C682   1.404       .  A
C682        H689   1.084       .  S
C683        C684   1.394       .  A
C683        H690   1.084       .  S
C684        C685   1.406       .  A
C684        H691   1.083       .  S
C685        C686   1.407       .  A
C686        H692   1.084       .  S
C693        C694   1.406       .  A
C693        C698   1.411       .  A
C694        C695   1.389       .  A
C694        H703   1.083       .  S
C695        C696   1.397       .  A
C695        H704   1.084       .  S
C696        C702   1.398       .  A
C696        C697   1.413       .  A
C697        C699   1.408       .  A
C697        C698   1.414       .  A
C698        H705   1.083       .  S
C699        C700   1.407       .  A
C699        H706   1.083       .  S
C700        C701   1.405       .  A
C700        H707   1.083       .  S
C701        C702   1.404       .  A
C702        H708   1.084       .  S
C709        C710   1.407       .  A
C709        C714   1.408       .  A
C710        C711   1.396       .  A
C710        H719   1.083       .  S
C711        C712   1.400       .  A
C711        H720   1.084       .  S
C712        C718   1.407       .  A
C712        C713   1.415       .  A
C713        C715   1.403       .  A
C713        C714   1.411       .  A
C714        H721   1.084       .  S
C715        C716   1.401       .  A
C715        H722   1.084       .  S
C716        C717   1.408       .  A
C716        H723   1.083       .  S
C717        C718   1.404       .  A
C718        H724   1.084       .  S
C725        C726   1.406       .  A
C725        C730   1.404       .  A
C726        C727   1.399       .  A
C726        H735   1.083       .  S
C727        C728   1.402       .  A
C727        H736   1.084       .  S
C728        C734   1.406       .  A
C728        C729   1.415       .  A
C729        C731   1.400       .  A
C729        C730   1.404       .  A
C730        H737   1.084       .  S
C731        C732   1.395       .  A
C731        H738   1.084       .  S
C732        C733   1.406       .  A
C732        H739   1.083       .  S
C733        C734   1.405       .  A
C734        H740   1.084       .  S
C741        C742   1.407       .  A
C741        C746   1.408       .  A
C742        C743   1.400       .  A
C742        H751   1.083       .  S
C743        C744   1.402       .  A
C743        H752   1.084       .  S
C744        C750   1.412       .  A
C744        C745   1.416       .  A
C745        C747   1.402       .  A
C745        C746   1.412       .  A
C746        H753   1.084       .  S
C747        C748   1.400       .  A
C747        H754   1.084       .  S
C748        C749   1.408       .  A
C748        H755   1.083       .  S
C749        C750   1.406       .  A
C750        H756   1.084       .  S
C757        C758   1.406       .  A
C757        C762   1.406       .  A
C758        C759   1.407       .  A
C758        H767   1.083       .  S
C759        C760   1.407       .  A
C759        H768   1.083       .  S
C760        C766   1.418       .  A
C760        C761   1.415       .  A
C761        C763   1.398       .  A
C761        C762   1.404       .  A
C762        H769   1.084       .  S
C763        C764   1.393       .  A
C763        H770   1.084       .  S
C764        C765   1.407       .  A
C764        H771   1.084       .  S
C765        C766   1.411       .  A
C766        H772   1.083       .  S
C773        C774   1.405       .  A
C773        C778   1.405       .  A
C774        C775   1.400       .  A
C774        H783   1.083       .  S
C775        C776   1.403       .  A
C775        H784   1.083       .  S
C776        C782   1.406       .  A
C776        C777   1.414       .  A
C777        C779   1.400       .  A
C777        C778   1.401       .  A
C778        H785   1.084       .  S
C779        C780   1.394       .  A
C779        H786   1.083       .  S
C780        C781   1.404       .  A
C780        H787   1.083       .  S
C781        C782   1.407       .  A
C782        H788   1.084       .  S
C789        C790   1.407       .  A
C789        C794   1.405       .  A
C790        C791   1.399       .  A
C790        H799   1.083       .  S
C791        C792   1.402       .  A
C791        H800   1.084       .  S
C792        C798   1.409       .  A
C792        C793   1.416       .  A
C793        C795   1.400       .  A
C793        C794   1.407       .  A
C794        H801   1.084       .  S
C795        C796   1.397       .  A
C795        H802   1.084       .  S
C796        C797   1.407       .  A
C796        H803   1.083       .  S
C797        C798   1.406       .  A
C798        H804   1.084       .  S
C805        C806   1.404       .  A
C805        C810   1.406       .  A
C806        C807   1.397       .  A
C806        H815   1.083       .  S
C807        C808   1.403       .  A
C807        H816   1.083       .  S
C808        C814   1.402       .  A
C808        C809   1.413       .  A
C809        C811   1.403       .  A
C809        C810   1.402       .  A
C810        H817   1.084       .  S
C811        C812   1.398       .  A
C811        H818   1.083       .  S
C812        C813   1.405       .  A
C812        H819   1.083       .  S
C813        C814   1.406       .  A
C814        H820   1.084       .  S
C821        C822   1.405       .  A
C821        C826   1.409       .  A
C822        C823   1.394       .  A
C822        H831   1.083       .  S
C823        C824   1.400       .  A
C823        H832   1.083       .  S
C824        C830   1.401       .  A
C824        C825   1.413       .  A
C825        C827   1.406       .  A
C825        C826   1.409       .  A
C826        H833   1.084       .  S
C827        C828   1.402       .  A
C827        H834   1.083       .  S
C828        C829   1.404       .  A
C828        H835   1.083       .  S
C829        C830   1.404       .  A
C830        H836   1.084       .  S
C837        C838   1.406       .  A
C837        C842   1.403       .  A
C838        C839   1.397       .  A
C838        H847   1.083       .  S
C839        C840   1.402       .  A
C839        H848   1.084       .  S
C840        C846   1.403       .  A
C840        C841   1.415       .  A
C841        C843   1.401       .  A
C841        C842   1.402       .  A
C842        H849   1.084       .  S
C843        C844   1.395       .  A
C843        H850   1.084       .  S
C844        C845   1.404       .  A
C844        H851   1.083       .  S
C845        C846   1.405       .  A
C846        H852   1.084       .  S
C853        C854   1.406       .  A
C853        C858   1.408       .  A
C854        C855   1.396       .  A
C854        H863   1.083       .  S
C855        C856   1.400       .  A
C855        H864   1.084       .  S
C856        C862   1.407       .  A
C856        C857   1.415       .  A
C857        C859   1.403       .  A
C857        C858   1.412       .  A
C858        H865   1.084       .  S
C859        C860   1.401       .  A
C859        H866   1.084       .  S
C860        C861   1.407       .  A
C860        H867   1.083       .  S
C861        C862   1.405       .  A
C862        H868   1.084       .  S
C869        C870   1.406       .  A
C869        C874   1.405       .  A
C870        C871   1.408       .  A
C870        H879   1.083       .  S
C871        C872   1.408       .  A
C871        H880   1.083       .  S
C872        C878   1.415       .  A
C872        C873   1.413       .  A
C873        C875   1.399       .  A
C873        C874   1.401       .  A
C874        H881   1.084       .  S
C875        C876   1.393       .  A
C875        H882   1.084       .  S
C876        C877   1.405       .  A
C876        H883   1.083       .  S
C877        C878   1.412       .  A
C878        H884   1.084       .  S
C885        C886   1.405       .  A
C885        C890   1.405       .  A
C886        C887   1.397       .  A
C886        H895   1.083       .  S
C887        C888   1.402       .  A
C887        H896   1.084       .  S
C888        C894   1.405       .  A
C888        C889   1.414       .  A
C889        C891   1.401       .  A
C889        C890   1.404       .  A
C890        H897   1.084       .  S
C891        C892   1.397       .  A
C891        H898   1.084       .  S
C892        C893   1.406       .  A
C892        H899   1.083       .  S
C893        C894   1.405       .  A
C894        H900   1.084       .  S
C901        C902   1.405       .  A
C901        C906   1.405       .  A
C902        C903   1.399       .  A
C902        H911   1.083       .  S
C903        C904   1.403       .  A
C903        H912   1.083       .  S
C904        C910   1.407       .  A
C904        C905   1.414       .  A
C905        C907   1.401       .  A
C905        C906   1.403       .  A
C906        H913   1.084       .  S
C907        C908   1.396       .  A
C907        H914   1.083       .  S
C908        C909   1.405       .  A
C908        H915   1.083       .  S
C909        C910   1.407       .  A
C910        H916   1.084       .  S
C917        C918   1.406       .  A
C917        C922   1.409       .  A
C918        C919   1.390       .  A
C918        H927   1.083       .  S
C919        C920   1.397       .  A
C919        H928   1.084       .  S
C920        C926   1.399       .  A
C920        C921   1.414       .  A
C921        C923   1.407       .  A
C921        C922   1.412       .  A
C922        H929   1.084       .  S
C923        C924   1.405       .  A
C923        H930   1.083       .  S
C924        C925   1.405       .  A
C924        H931   1.083       .  S
C925        C926   1.403       .  A
C926        H932   1.085       .  S
C933        C934   1.405       .  A
C933        C938   1.404       .  A
C934        C935   1.394       .  A
C934        H943   1.083       .  S
C935        C936   1.400       .  A
C935        H944   1.084       .  S
C936        C942   1.400       .  A
C936        C937   1.414       .  A
C937        C939   1.402       .  A
C937        C938   1.403       .  A
C938        H945   1.084       .  S
C939        C940   1.398       .  A
C939        H946   1.084       .  S
C940        C941   1.405       .  A
C940        H947   1.083       .  S
C941        C942   1.404       .  A
C942        H948   1.084       .  S
C949        C950   1.405       .  A
C949        C954   1.405       .  A
C950        C951   1.403       .  A
C950        H959   1.083       .  S
C951        C952   1.406       .  A
C951        H960   1.083       .  S
C952        C958   1.409       .  A
C952        C953   1.413       .  A
C953        C955   1.400       .  A
C953        C954   1.399       .  A
C954        H961   1.084       .  S
C955        C956   1.394       .  A
C955        H962   1.084       .  S
C956        C957   1.405       .  A
C956        H963   1.083       .  S
C957        C958   1.410       .  A
C958        H964   1.084       .  S
C965        C966   1.404       .  A
C965        C970   1.405       .  A
C966        C967   1.392       .  A
C966        H975   1.083       .  S
C967        C968   1.399       .  A
C967        H976   1.084       .  S
C968        C974   1.399       .  A
C968        C969   1.414       .  A
C969        C971   1.403       .  A
C969        C970   1.404       .  A
C970        H977   1.084       .  S
C971        C972   1.398       .  A
C971        H978   1.084       .  S
C972        C973   1.405       .  A
C972        H979   1.083       .  S
C973        C974   1.402       .  A
C974        H980   1.084       .  S
C981        C982   1.405       .  A
C981        C986   1.408       .  A
C982        C983   1.393       .  A
C982        H991   1.083       .  S
C983        C984   1.400       .  A
C983        H992   1.083       .  S
C984        C990   1.399       .  A
C984        C985   1.413       .  A
C985        C987   1.406       .  A
C985        C986   1.408       .  A
C986        H993   1.083       .  S
C987        C988   1.403       .  A
C987        H994   1.083       .  S
C988        C989   1.404       .  A
C988        H995   1.083       .  S
C989        C990   1.405       .  A
C990        H996   1.084       .  S
C997        C998   1.404       .  A
C997       C1002   1.405       .  A
C998        C999   1.391       .  A
C998       H1007   1.083       .  S
C999       C1000   1.398       .  A
C999       H1008   1.084       .  S
C1000      C1006   1.397       .  A
C1000      C1001   1.414       .  A
C1001      C1003   1.403       .  A
C1001      C1002   1.404       .  A
C1002      H1009   1.084       .  S
C1003      C1004   1.399       .  A
C1003      H1010   1.083       .  S
C1004      C1005   1.405       .  A
C1004      H1011   1.083       .  S
C1005      C1006   1.401       .  A
C1006      H1012   1.084       .  S
C1013      C1014   1.405       .  A
C1013      C1018   1.405       .  A
C1014      C1015   1.398       .  A
C1014      H1023   1.083       .  S
C1015      C1016   1.402       .  A
C1015      H1024   1.084       .  S
C1016      C1022   1.405       .  A
C1016      C1017   1.414       .  A
C1017      C1019   1.401       .  A
C1017      C1018   1.403       .  A
C1018      H1025   1.084       .  S
C1019      C1020   1.396       .  A
C1019      H1026   1.084       .  S
C1020      C1021   1.406       .  A
C1020      H1027   1.083       .  S
C1021      C1022   1.405       .  A
C1022      H1028   1.084       .  S
C1029      C1030   1.405       .  A
C1029      C1034   1.406       .  A
C1030      C1031   1.402       .  A
C1030      H1039   1.083       .  S
C1031      C1032   1.405       .  A
C1031      H1040   1.083       .  S
C1032      C1038   1.409       .  A
C1032      C1033   1.414       .  A
C1033      C1035   1.401       .  A
C1033      C1034   1.403       .  A
C1034      H1041   1.084       .  S
C1035      C1036   1.395       .  A
C1035      H1042   1.084       .  S
C1036      C1037   1.405       .  A
C1036      H1043   1.083       .  S
C1037      C1038   1.409       .  A
C1038      H1044   1.084       .  S
C1045      C1046   1.406       .  A
C1045      C1050   1.411       .  A
C1046      C1047   1.387       .  A
C1046      H1055   1.083       .  S
C1047      C1048   1.396       .  A
C1047      H1056   1.084       .  S
C1048      C1054   1.395       .  A
C1048      C1049   1.413       .  A
C1049      C1051   1.408       .  A
C1049      C1050   1.414       .  A
C1050      H1057   1.084       .  S
C1051      C1052   1.408       .  A
C1051      H1058   1.083       .  S
C1052      C1053   1.406       .  A
C1052      H1059   1.083       .  S
C1053      C1054   1.402       .  A
C1054      H1060   1.085       .  S
C1061      C1062   1.405       .  A
C1061      C1066   1.404       .  A
C1062      C1063   1.395       .  A
C1062      H1071   1.083       .  S
C1063      C1064   1.401       .  A
C1063      H1072   1.084       .  S
C1064      C1070   1.401       .  A
C1064      C1065   1.414       .  A
C1065      C1067   1.402       .  A
C1065      C1066   1.403       .  A
C1066      H1073   1.084       .  S
C1067      C1068   1.397       .  A
C1067      H1074   1.084       .  S
C1068      C1069   1.405       .  A
C1068      H1075   1.083       .  S
C1069      C1070   1.404       .  A
C1070      H1076   1.084       .  S
C1077      C1078   1.404       .  A
C1077      C1082   1.406       .  A
C1078      C1079   1.401       .  A
C1078      H1087   1.083       .  S
C1079      C1080   1.404       .  A
C1079      H1088   1.083       .  S
C1080      C1086   1.406       .  A
C1080      C1081   1.413       .  A
C1081      C1083   1.401       .  A
C1081      C1082   1.400       .  A
C1082      H1089   1.084       .  S
C1083      C1084   1.395       .  A
C1083      H1090   1.083       .  S
C1084      C1085   1.405       .  A
C1084      H1091   1.083       .  S
C1085      C1086   1.407       .  A
C1086      H1092   1.084       .  S
C1093      C1094   1.405       .  A
C1093      C1098   1.404       .  A
C1094      C1095   1.396       .  A
C1094      H1103   1.083       .  S
C1095      C1096   1.402       .  A
C1095      H1104   1.083       .  S
C1096      C1102   1.402       .  A
C1096      C1097   1.414       .  A
C1097      C1099   1.401       .  A
C1097      C1098   1.401       .  A
C1098      H1105   1.084       .  S
C1099      C1100   1.395       .  A
C1099      H1106   1.083       .  S
C1100      C1101   1.404       .  A
C1100      H1107   1.083       .  S
C1101      C1102   1.405       .  A
C1102      H1108   1.084       .  S
C1109      C1110   1.406       .  A
C1109      C1114   1.408       .  A
C1110      C1111   1.390       .  A
C1110      H1119   1.083       .  S
C1111      C1112   1.397       .  A
C1111      H1120   1.084       .  S
C1112      C1118   1.399       .  A
C1112      C1113   1.414       .  A
C1113      C1115   1.406       .  A
C1113      C1114   1.412       .  A
C1114      H1121   1.084       .  S
C1115      C1116   1.404       .  A
C1115      H1122   1.083       .  S
C1116      C1117   1.405       .  A
C1116      H1123   1.083       .  S
C1117      C1118   1.404       .  A
C1118      H1124   1.084       .  S
C1125      C1126   1.404       .  A
C1125      C1130   1.404       .  A
C1126      C1127   1.400       .  A
C1126      H1135   1.083       .  S
C1127      C1128   1.404       .  A
C1127      H1136   1.083       .  S
C1128      C1134   1.405       .  A
C1128      C1129   1.414       .  A
C1129      C1131   1.400       .  A
C1129      C1130   1.400       .  A
C1130      H1137   1.084       .  S
C1131      C1132   1.394       .  A
C1131      H1138   1.083       .  S
C1132      C1133   1.405       .  A
C1132      H1139   1.083       .  S
C1133      C1134   1.406       .  A
C1134      H1140   1.084       .  S
C1141      C1142   1.407       .  A
C1141      C1146   1.408       .  A
C1142      C1143   1.399       .  A
C1142      H1151   1.083       .  S
C1143      C1144   1.401       .  A
C1143      H1152   1.084       .  S
C1144      C1150   1.411       .  A
C1144      C1145   1.416       .  A
C1145      C1147   1.403       .  A
C1145      C1146   1.413       .  A
C1146      H1153   1.084       .  S
C1147      C1148   1.401       .  A
C1147      H1154   1.084       .  S
C1148      C1149   1.407       .  A
C1148      H1155   1.083       .  S
C1149      C1150   1.407       .  A
C1150      H1156   1.084       .  S
C1157      C1158   1.405       .  A
C1157      C1162   1.409       .  A
C1158      C1159   1.395       .  A
C1158      H1167   1.083       .  S
C1159      C1160   1.401       .  A
C1159      H1168   1.084       .  S
C1160      C1166   1.402       .  A
C1160      C1161   1.413       .  A
C1161      C1163   1.405       .  A
C1161      C1162   1.409       .  A
C1162      H1169   1.084       .  S
C1163      C1164   1.403       .  A
C1163      H1170   1.083       .  S
C1164      C1165   1.406       .  A
C1164      H1171   1.083       .  S
C1165      C1166   1.406       .  A
C1166      H1172   1.084       .  S
C1173      C1174   1.406       .  A
C1173      C1178   1.407       .  A
C1174      C1175   1.397       .  A
C1174      H1183   1.083       .  S
C1175      C1176   1.401       .  A
C1175      H1184   1.084       .  S
C1176      C1182   1.406       .  A
C1176      C1177   1.414       .  A
C1177      C1179   1.403       .  A
C1177      C1178   1.409       .  A
C1178      H1185   1.084       .  S
C1179      C1180   1.401       .  A
C1179      H1186   1.084       .  S
C1180      C1181   1.406       .  A
C1180      H1187   1.083       .  S
C1181      C1182   1.406       .  A
C1182      H1188   1.084       .  S
C1189      C1190   1.408       .  A
C1189      C1194   1.407       .  A
C1190      C1191   1.397       .  A
C1190      H1199   1.083       .  S
C1191      C1192   1.400       .  A
C1191      H1200   1.084       .  S
C1192      C1198   1.408       .  A
C1192      C1193   1.415       .  A
C1193      C1195   1.403       .  A
C1193      C1194   1.412       .  A
C1194      H1201   1.084       .  S
C1195      C1196   1.401       .  A
C1195      H1202   1.084       .  S
C1196      C1197   1.407       .  A
C1196      H1203   1.083       .  S
C1197      C1198   1.406       .  A
C1198      H1204   1.084       .  S
C1205      C1206   1.406       .  A
C1205      C1210   1.407       .  A
C1206      C1207   1.410       .  A
C1206      H1215   1.083       .  S
C1207      C1208   1.409       .  A
C1207      H1216   1.083       .  S
C1208      C1214   1.419       .  A
C1208      C1209   1.414       .  A
C1209      C1211   1.398       .  A
C1209      C1210   1.404       .  A
C1210      H1217   1.084       .  S
C1211      C1212   1.393       .  A
C1211      H1218   1.084       .  S
C1212      C1213   1.407       .  A
C1212      H1219   1.083       .  S
C1213      C1214   1.413       .  A
C1214      H1220   1.083       .  S
C1221      C1222   1.405       .  A
C1221      C1226   1.410       .  A
C1222      C1223   1.393       .  A
C1222      H1231   1.083       .  S
C1223      C1224   1.399       .  A
C1223      H1232   1.084       .  S
C1224      C1230   1.400       .  A
C1224      C1225   1.414       .  A
C1225      C1227   1.406       .  A
C1225      C1226   1.410       .  A
C1226      H1233   1.084       .  S
C1227      C1228   1.403       .  A
C1227      H1234   1.083       .  S
C1228      C1229   1.405       .  A
C1228      H1235   1.083       .  S
C1229      C1230   1.403       .  A
C1230      H1236   1.084       .  S
C1237      C1238   1.405       .  A
C1237      C1242   1.408       .  A
C1238      C1239   1.393       .  A
C1238      H1247   1.084       .  S
C1239      C1240   1.399       .  A
C1239      H1248   1.084       .  S
C1240      C1246   1.402       .  A
C1240      C1241   1.415       .  A
C1241      C1243   1.405       .  A
C1241      C1242   1.411       .  A
C1242      H1249   1.084       .  S
C1243      C1244   1.403       .  A
C1243      H1250   1.083       .  S
C1244      C1245   1.405       .  A
C1244      H1251   1.083       .  S
C1245      C1246   1.405       .  A
C1246      H1252   1.084       .  S
C1253      C1254   1.405       .  A
C1253      C1258   1.405       .  A
C1254      C1255   1.401       .  A
C1254      H1263   1.083       .  S
C1255      C1256   1.404       .  A
C1255      H1264   1.083       .  S
C1256      C1262   1.410       .  A
C1256      C1257   1.415       .  A
C1257      C1259   1.400       .  A
C1257      C1258   1.404       .  A
C1258      H1265   1.084       .  S
C1259      C1260   1.395       .  A
C1259      H1266   1.084       .  S
C1260      C1261   1.406       .  A
C1260      H1267   1.083       .  S
C1261      C1262   1.408       .  A
C1262      H1268   1.084       .  S
C1269      C1270   1.405       .  A
C1269      C1274   1.409       .  A
C1270      C1271   1.400       .  A
C1270      H1279   1.083       .  S
C1271      C1272   1.404       .  A
C1271      H1280   1.083       .  S
C1272      C1278   1.408       .  A
C1272      C1273   1.413       .  A
C1273      C1275   1.403       .  A
C1273      C1274   1.407       .  A
C1274      H1281   1.084       .  S
C1275      C1276   1.400       .  A
C1275      H1282   1.083       .  S
C1276      C1277   1.405       .  A
C1276      H1283   1.083       .  S
C1277      C1278   1.409       .  A
C1278      H1284   1.084       .  S
C1285      C1286   1.403       .  A
C1285      C1290   1.406       .  A
C1286      C1287   1.391       .  A
C1286      H1295   1.083       .  S
C1287      C1288   1.399       .  A
C1287      H1296   1.083       .  S
C1288      C1294   1.395       .  A
C1288      C1289   1.413       .  A
C1289      C1291   1.405       .  A
C1289      C1290   1.403       .  A
C1290      H1297   1.084       .  S
C1291      C1292   1.400       .  A
C1291      H1298   1.083       .  S
C1292      C1293   1.404       .  A
C1292      H1299   1.083       .  S
C1293      C1294   1.402       .  A
C1294      H1300   1.084       .  S
C1301      C1302   1.405       .  A
C1301      C1306   1.406       .  A
C1302      C1303   1.400       .  A
C1302      H1311   1.083       .  S
C1303      C1304   1.403       .  A
C1303      H1312   1.083       .  S
C1304      C1310   1.408       .  A
C1304      C1305   1.414       .  A
C1305      C1307   1.401       .  A
C1305      C1306   1.404       .  A
C1306      H1313   1.084       .  S
C1307      C1308   1.396       .  A
C1307      H1314   1.084       .  S
C1308      C1309   1.406       .  A
C1308      H1315   1.083       .  S
C1309      C1310   1.407       .  A
C1310      H1316   1.084       .  S
C1317      C1318   1.406       .  A
C1317      C1322   1.405       .  A
C1318      C1319   1.393       .  A
C1318      H1327   1.083       .  S
C1319      C1320   1.399       .  A
C1319      H1328   1.084       .  S
C1320      C1326   1.399       .  A
C1320      C1321   1.415       .  A
C1321      C1323   1.402       .  A
C1321      C1322   1.404       .  A
C1322      H1329   1.084       .  S
C1323      C1324   1.398       .  A
C1323      H1330   1.084       .  S
C1324      C1325   1.406       .  A
C1324      H1331   1.083       .  S
C1325      C1326   1.402       .  A
C1326      H1332   1.084       .  S
C1333      C1334   1.407       .  A
C1333      C1338   1.405       .  A
C1334      C1335   1.401       .  A
C1334      H1343   1.083       .  S
C1335      C1336   1.403       .  A
C1335      H1344   1.084       .  S
C1336      C1342   1.411       .  A
C1336      C1337   1.415       .  A
C1337      C1339   1.400       .  A
C1337      C1338   1.406       .  A
C1338      H1345   1.084       .  S
C1339      C1340   1.395       .  A
C1339      H1346   1.084       .  S
C1340      C1341   1.408       .  A
C1340      H1347   1.083       .  S
C1341      C1342   1.407       .  A
C1342      H1348   1.084       .  S
C1349      C1350   1.405       .  A
C1349      C1354   1.404       .  A
C1350      C1351   1.405       .  A
C1350      H1359   1.083       .  S
C1351      C1352   1.406       .  A
C1351      H1360   1.083       .  S
C1352      C1358   1.412       .  A
C1352      C1353   1.414       .  A
C1353      C1355   1.400       .  A
C1353      C1354   1.404       .  A
C1354      H1361   1.085       .  S
C1355      C1356   1.395       .  A
C1355      H1362   1.084       .  S
C1356      C1357   1.406       .  A
C1356      H1363   1.083       .  S
C1357      C1358   1.410       .  A
C1358      H1364   1.084       .  S
C1365      C1366   1.405       .  A
C1365      C1370   1.405       .  A
C1366      C1367   1.396       .  A
C1366      H1375   1.083       .  S
C1367      C1368   1.402       .  A
C1367      H1376   1.083       .  S
C1368      C1374   1.404       .  A
C1368      C1369   1.414       .  A
C1369      C1371   1.402       .  A
C1369      C1370   1.405       .  A
C1370      H1377   1.084       .  S
C1371      C1372   1.398       .  A
C1371      H1378   1.083       .  S
C1372      C1373   1.405       .  A
C1372      H1379   1.083       .  S
C1373      C1374   1.406       .  A
C1374      H1380   1.084       .  S
C1381      C1382   1.404       .  A
C1381      C1386   1.403       .  A
C1382      C1383   1.398       .  A
C1382      H1391   1.083       .  S
C1383      C1384   1.403       .  A
C1383      H1392   1.083       .  S
C1384      C1390   1.403       .  A
C1384      C1385   1.414       .  A
C1385      C1387   1.400       .  A
C1385      C1386   1.399       .  A
C1386      H1393   1.084       .  S
C1387      C1388   1.393       .  A
C1387      H1394   1.083       .  S
C1388      C1389   1.404       .  A
C1388      H1395   1.083       .  S
C1389      C1390   1.405       .  A
C1390      H1396   1.084       .  S
C1397      C1398   1.405       .  A
C1397      C1402   1.405       .  A
C1398      C1399   1.394       .  A
C1398      H1407   1.083       .  S
C1399      C1400   1.400       .  A
C1399      H1408   1.084       .  S
C1400      C1406   1.399       .  A
C1400      C1401   1.414       .  A
C1401      C1403   1.403       .  A
C1401      C1402   1.404       .  A
C1402      H1409   1.084       .  S
C1403      C1404   1.399       .  A
C1403      H1410   1.084       .  S
C1404      C1405   1.405       .  A
C1404      H1411   1.083       .  S
C1405      C1406   1.403       .  A
C1406      H1412   1.085       .  S
C1413      C1414   1.405       .  A
C1413      C1418   1.404       .  A
C1414      C1415   1.398       .  A
C1414      H1423   1.083       .  S
C1415      C1416   1.402       .  A
C1415      H1424   1.084       .  S
C1416      C1422   1.404       .  A
C1416      C1417   1.414       .  A
C1417      C1419   1.400       .  A
C1417      C1418   1.401       .  A
C1418      H1425   1.084       .  S
C1419      C1420   1.395       .  A
C1419      H1426   1.084       .  S
C1420      C1421   1.405       .  A
C1420      H1427   1.083       .  S
C1421      C1422   1.405       .  A
C1422      H1428   1.084       .  S
C1429      C1430   1.405       .  A
C1429      C1434   1.406       .  A
C1430      C1431   1.397       .  A
C1430      H1439   1.083       .  S
C1431      C1432   1.402       .  A
C1431      H1440   1.084       .  S
C1432      C1438   1.407       .  A
C1432      C1433   1.415       .  A
C1433      C1435   1.402       .  A
C1433      C1434   1.409       .  A
C1434      H1441   1.084       .  S
C1435      C1436   1.399       .  A
C1435      H1442   1.084       .  S
C1436      C1437   1.405       .  A
C1436      H1443   1.083       .  S
C1437      C1438   1.407       .  A
C1438      H1444   1.084       .  S
C1445      C1446   1.404       .  A
C1445      C1450   1.404       .  A
C1446      C1447   1.391       .  A
C1446      H1455   1.083       .  S
C1447      C1448   1.398       .  A
C1447      H1456   1.084       .  S
C1448      C1454   1.396       .  A
C1448      C1449   1.414       .  A
C1449      C1451   1.403       .  A
C1449      C1450   1.402       .  A
C1450      H1457   1.084       .  S
C1451      C1452   1.398       .  A
C1451      H1458   1.084       .  S
C1452      C1453   1.405       .  A
C1452      H1459   1.083       .  S
C1453      C1454   1.400       .  A
C1454      H1460   1.084       .  S
C1461      C1462   1.404       .  A
C1461      C1466   1.409       .  A
C1462      C1463   1.401       .  A
C1462      H1471   1.083       .  S
C1463      C1464   1.404       .  A
C1463      H1472   1.083       .  S
C1464      C1470   1.407       .  A
C1464      C1465   1.413       .  A
C1465      C1467   1.403       .  A
C1465      C1466   1.405       .  A
C1466      H1473   1.084       .  S
C1467      C1468   1.399       .  A
C1467      H1474   1.083       .  S
C1468      C1469   1.404       .  A
C1468      H1475   1.083       .  S
C1469      C1470   1.408       .  A
C1470      H1476   1.084       .  S
C1477      C1478   1.405       .  A
C1477      C1482   1.405       .  A
C1478      C1479   1.398       .  A
C1478      H1487   1.083       .  S
C1479      C1480   1.402       .  A
C1479      H1488   1.084       .  S
C1480      C1486   1.404       .  A
C1480      C1481   1.414       .  A
C1481      C1483   1.401       .  A
C1481      C1482   1.403       .  A
C1482      H1489   1.084       .  S
C1483      C1484   1.396       .  A
C1483      H1490   1.084       .  S
C1484      C1485   1.405       .  A
C1484      H1491   1.083       .  S
C1485      C1486   1.406       .  A
C1486      H1492   1.084       .  S
C1493      C1494   1.407       .  A
C1493      C1498   1.410       .  A
C1494      C1495   1.390       .  A
C1494      H1503   1.083       .  S
C1495      C1496   1.397       .  A
C1495      H1504   1.084       .  S
C1496      C1502   1.398       .  A
C1496      C1497   1.414       .  A
C1497      C1499   1.407       .  A
C1497      C1498   1.412       .  A
C1498      H1505   1.084       .  S
C1499      C1500   1.406       .  A
C1499      H1506   1.083       .  S
C1500      C1501   1.405       .  A
C1500      H1507   1.083       .  S
C1501      C1502   1.404       .  A
C1502      H1508   1.085       .  S
C1509      C1510   1.406       .  A
C1509      C1514   1.405       .  A
C1510      C1511   1.401       .  A
C1510      H1519   1.083       .  S
C1511      C1512   1.404       .  A
C1511      H1520   1.083       .  S
C1512      C1518   1.407       .  A
C1512      C1513   1.414       .  A
C1513      C1515   1.400       .  A
C1513      C1514   1.402       .  A
C1514      H1521   1.084       .  S
C1515      C1516   1.394       .  A
C1515      H1522   1.084       .  S
C1516      C1517   1.405       .  A
C1516      H1523   1.083       .  S
C1517      C1518   1.407       .  A
C1518      H1524   1.084       .  S
C1525      C1526   1.405       .  A
C1525      C1530   1.404       .  A
C1526      C1527   1.402       .  A
C1526      H1535   1.083       .  S
C1527      C1528   1.405       .  A
C1527      H1536   1.083       .  S
C1528      C1534   1.405       .  A
C1528      C1529   1.413       .  A
C1529      C1531   1.400       .  A
C1529      C1530   1.399       .  A
C1530      H1537   1.084       .  S
C1531      C1532   1.393       .  A
C1531      H1538   1.083       .  S
C1532      C1533   1.403       .  A
C1532      H1539   1.083       .  S
C1533      C1534   1.408       .  A
C1534      H1540   1.084       .  S
C1541      C1542   1.405       .  A
C1541      C1546   1.405       .  A
C1542      C1543   1.398       .  A
C1542      H1551   1.083       .  S
C1543      C1544   1.403       .  A
C1543      H1552   1.084       .  S
C1544      C1550   1.405       .  A
C1544      C1545   1.414       .  A
C1545      C1547   1.402       .  A
C1545      C1546   1.404       .  A
C1546      H1553   1.084       .  S
C1547      C1548   1.398       .  A
C1547      H1554   1.084       .  S
C1548      C1549   1.405       .  A
C1548      H1555   1.083       .  S
C1549      C1550   1.407       .  A
C1550      H1556   1.084       .  S
C1557      C1558   1.403       .  A
C1557      C1562   1.406       .  A
C1558      C1559   1.398       .  A
C1558      H1567   1.083       .  S
C1559      C1560   1.403       .  A
C1559      H1568   1.083       .  S
C1560      C1566   1.402       .  A
C1560      C1561   1.413       .  A
C1561      C1563   1.402       .  A
C1561      C1562   1.401       .  A
C1562      H1569   1.084       .  S
C1563      C1564   1.397       .  A
C1563      H1570   1.084       .  S
C1564      C1565   1.405       .  A
C1564      H1571   1.083       .  S
C1565      C1566   1.405       .  A
C1566      H1572   1.084       .  S
C1573      C1574   1.405       .  A
C1573      C1578   1.404       .  A
C1574      C1575   1.405       .  A
C1574      H1583   1.083       .  S
C1575      C1576   1.407       .  A
C1575      H1584   1.083       .  S
C1576      C1582   1.412       .  A
C1576      C1577   1.414       .  A
C1577      C1579   1.398       .  A
C1577      C1578   1.400       .  A
C1578      H1585   1.085       .  S
C1579      C1580   1.392       .  A
C1579      H1586   1.084       .  S
C1580      C1581   1.405       .  A
C1580      H1587   1.083       .  S
C1581      C1582   1.409       .  A
C1582      H1588   1.084       .  S
C1589      C1590   1.404       .  A
C1589      C1594   1.406       .  A
C1590      C1591   1.396       .  A
C1590      H1599   1.083       .  S
C1591      C1592   1.402       .  A
C1591      H1600   1.083       .  S
C1592      C1598   1.402       .  A
C1592      C1593   1.414       .  A
C1593      C1595   1.403       .  A
C1593      C1594   1.403       .  A
C1594      H1601   1.084       .  S
C1595      C1596   1.398       .  A
C1595      H1602   1.083       .  S
C1596      C1597   1.405       .  A
C1596      H1603   1.083       .  S
C1597      C1598   1.404       .  A
C1598      H1604   1.084       .  S
C1605      C1606   1.405       .  A
C1605      C1610   1.403       .  A
C1606      C1607   1.399       .  A
C1606      H1615   1.083       .  S
C1607      C1608   1.403       .  A
C1607      H1616   1.084       .  S
C1608      C1614   1.404       .  A
C1608      C1609   1.414       .  A
C1609      C1611   1.400       .  A
C1609      C1610   1.400       .  A
C1610      H1617   1.084       .  S
C1611      C1612   1.394       .  A
C1611      H1618   1.084       .  S
C1612      C1613   1.404       .  A
C1612      H1619   1.083       .  S
C1613      C1614   1.406       .  A
C1614      H1620   1.084       .  S
