geometry optimzed in LAMMPS
_audit_creation_date              2020-11-30 
_audit_creation_method            'lammps2cif' 
_symmetry_space_group_name_H-M    'P1' 
_symmetry_Int_Tables_number       1 
_symmetry_cell_setting            triclinic 
loop_ 
_symmetry_equiv_pos_as_xyz 
  x,y,z 
_cell_length_a                    45.74976993411454 
_cell_length_b                    45.25891117946188 
_cell_length_c                    45.88149219168676 
_cell_angle_alpha                 89.94892817856544 
_cell_angle_beta                  90.03121867590919 
_cell_angle_gamma                 89.80464780759152 
loop_ 
_atom_site_label 
_atom_site_type_symbol 
_atom_site_fract_x 
_atom_site_fract_y 
_atom_site_fract_z 
_atom_site_charge 
O1          O  0.22898558  0.70073087  0.96003345    -0.56980
C2          C  0.21938039  0.75713444  0.89102232     0.75650
O3          O  0.31176946  0.72854245  0.92923231    -0.58140
C4          C  0.24197187  0.67604887  0.96267750     0.75620
C5          C  0.25453761  0.67942774  0.87009942     0.78010
Cd6        Cd  0.25953854  0.71779617  0.91925781     1.37470
O7          O  0.21362703  0.74662933  0.91601416    -0.56980
O8          O  0.23807706  0.67904693  0.89213915    -0.55790
C9          C  0.30633458  0.75092083  0.94503326     0.77970
O10         O  0.27696312  0.69591218  0.87159039    -0.58160
O11         O  0.24476580  0.75216036  0.88122964    -0.56610
O12         O  0.26459847  0.67216784  0.94724143    -0.56600
O13         O  0.27971010  0.75772138  0.94814868    -0.55770
O14         O  0.06759369  0.74110152  0.76487815    -0.56980
C15         C  0.02859679  0.76851916  0.83861461     0.75650
O16         O  0.10257383  0.81390259  0.82424558    -0.58140
C17         C  0.08996037  0.74787274  0.74998442     0.75620
C18         C  0.03646432  0.83413883  0.75933460     0.78010
Cd19       Cd  0.06610469  0.78829984  0.79206938     1.37470
O20         O  0.02734944  0.75724207  0.81339718    -0.56980
O21         O  0.02671990  0.80819124  0.76185208    -0.55790
C22         C  0.11980303  0.79182427  0.82422178     0.77970
O23         O  0.06037283  0.83925195  0.77232352    -0.58160
O24         O  0.04665613  0.78928300  0.84207704    -0.56610
O25         O  0.09921753  0.77407734  0.75259900    -0.56600
O26         O  0.11218633  0.76971296  0.80932588    -0.55770
O27         O  0.16635912  0.54989360  0.74742895    -0.56980
C28         C  0.21748760  0.61169198  0.77000219     0.75650
O29         O  0.20797801  0.58682850  0.67042941    -0.58140
C30         C  0.14117780  0.55040386  0.73600763     0.75620
C31         C  0.15755935  0.64851299  0.71237925     0.78010
Cd32       Cd  0.18612238  0.59182194  0.71980679     1.37470
O33         O  0.19364644  0.59762998  0.77166571    -0.56980
O34         O  0.18246463  0.64531572  0.72378148    -0.55790
C35         C  0.22255477  0.56375858  0.67647794     0.77970
O36         O  0.14667123  0.62551490  0.70101136    -0.58160
O37         O  0.22894635  0.61377197  0.74496682    -0.56610
O38         O  0.13699613  0.56962383  0.71636842    -0.56600
O39         O  0.22033625  0.55447297  0.70229241    -0.55770
O40         O  0.67293926  0.95115006  0.00375448    -0.56980
C41         C  0.60552041  0.00258025  0.01126440     0.75650
O42         O  0.65516816  0.97267911  0.91947469    -0.58140
C43         C  0.67960904  0.92746454  0.99052013     0.75620
C44         C  0.58728120  0.92391803  0.96469528     0.78010
Cd45       Cd  0.63439073  0.96577085  0.96894663     1.37470
O46         O  0.63193464  0.99465346  0.01466486    -0.56980
O47         O  0.60853406  0.92160609  0.98210418    -0.55790
C48         C  0.66128837  0.99966973  0.92294933     0.77970
O49         O  0.58835022  0.94537510  0.94686062    -0.58160
O50         O  0.59347380  0.99505620  0.98756994    -0.56610
O51         O  0.66710269  0.92316847  0.96633163    -0.56600
O52         O  0.65340835  0.01134339  0.94664946    -0.55770
O53         O  0.48739077  0.99409012  0.16323617    -0.56980
C54         C  0.55559657  0.01501102  0.20306741     0.75650
O55         O  0.51902643  0.05544619  0.11297696    -0.58140
C56         C  0.47651039  0.99874947  0.13822168     0.75620
C57         C  0.48102812  0.08635311  0.19629113     0.78010
Cd58       Cd  0.51340720  0.04187298  0.16478543     1.37470
O59         O  0.53392614  0.00105483  0.19289804    -0.56980
O60         O  0.47295791  0.05973691  0.19516729    -0.55790
C61         C  0.54594634  0.04917315  0.11147993     0.77970
O62         O  0.50376652  0.09280813  0.18194754    -0.58160
O63         O  0.55680538  0.04232791  0.19719937    -0.56610
O64         O  0.48034594  0.02401221  0.12714832    -0.56600
O65         O  0.55878160  0.04417016  0.13540382    -0.55770
O66         O  0.48847021  0.83676624  0.01929679    -0.56980
C67         C  0.46569405  0.80810630  0.08736880     0.75650
O68         O  0.43972945  0.89759034  0.04441469    -0.58140
C69         C  0.48721476  0.85902289  0.00262426     0.75620
C70         C  0.39573328  0.81333307  0.00977896     0.78010
Cd71       Cd  0.44068592  0.84396619  0.04186591     1.37470
O72         O  0.48063196  0.82432145  0.07065249    -0.56980
O73         O  0.42210012  0.80508029  0.01020848    -0.55790
C74         C  0.43612078  0.89938821  0.07163603     0.77970
O75         O  0.38976047  0.83638877  0.02430488    -0.58160
O76         O  0.43835869  0.80772760  0.08286778    -0.56610
O77         O  0.46290539  0.87246912  0.00173998    -0.56600
O78         O  0.42888742  0.87589927  0.08472849    -0.55770
O79         O  0.38897427  0.26588225  0.26642410    -0.56980
C80         C  0.43020629  0.23491050  0.33743985     0.75650
O81         O  0.34121980  0.20090553  0.31808070    -0.58140
C82         C  0.36584054  0.26149667  0.25191621     0.75620
C83         C  0.41542689  0.17254495  0.26312284     0.78010
Cd84       Cd  0.38738977  0.21978966  0.29441481     1.37470
O85         O  0.42779299  0.24896789  0.31364997    -0.56980
O86         O  0.42545949  0.19845203  0.26465773    -0.55790
C87         C  0.33782469  0.22452869  0.33271945     0.77970
O88         O  0.39152416  0.16787402  0.27638949    -0.58160
O89         O  0.41399425  0.21246797  0.34051022    -0.56610
O90         O  0.35389388  0.23658692  0.25547832    -0.56600
O91         O  0.35755012  0.24375748  0.32981299    -0.55770
O92         O  0.22384449  0.32226465  0.44157110    -0.56980
C93         C  0.23552067  0.26137420  0.39755590     0.75650
O94         O  0.13561973  0.27903306  0.42797553    -0.58140
C95         C  0.20737418  0.34079022  0.45404230     0.75620
C96         C  0.18082713  0.32419228  0.36101680     0.78010
Cd97       Cd  0.18602069  0.29508090  0.41628763     1.37470
O98         O  0.23653776  0.27876897  0.41913545    -0.56980
O99         O  0.17657874  0.33863101  0.38423307    -0.55790
C100        C  0.14319079  0.25970137  0.44652841     0.77970
O101        O  0.18148561  0.29639718  0.36325754    -0.58160
O102        O  0.21047172  0.25624878  0.38696504    -0.56610
O103        O  0.18009522  0.33765821  0.45049178    -0.56600
O104        O  0.17035724  0.25668391  0.45041683    -0.55770
O105        O  0.28336350  0.45233391  0.25169844    -0.56980
C106        C  0.23118677  0.38723541  0.26467332     0.75650
O107        O  0.24658496  0.42078497  0.16879991    -0.58140
C108        C  0.30604014  0.45829358  0.23691292     0.75620
C109        C  0.30427001  0.36320597  0.21046961     0.78010
Cd110      Cd  0.26590403  0.41333230  0.21905454     1.37460
O111        O  0.25535713  0.39973071  0.26947350    -0.56980
O112        O  0.31283553  0.38800724  0.21948916    -0.55790
C113        C  0.23238120  0.44401375  0.17521809     0.77970
O114        O  0.27795649  0.36216694  0.20181751    -0.58160
O115        O  0.22138873  0.38874548  0.23894910    -0.56610
O116        O  0.30882444  0.44479068  0.21290365    -0.56600
O117        O  0.23346108  0.45211906  0.20153019    -0.55770
O118        O  0.72002389  0.91439897  0.24731655    -0.56980
C119        C  0.64978142  0.95552847  0.26392219     0.75650
O120        O  0.67703757  0.86245378  0.30498130    -0.58140
C121        C  0.73047879  0.88877874  0.25159039     0.75620
C122        C  0.72125813  0.94441303  0.33767378     0.78010
Cd123      Cd  0.68957047  0.91481083  0.29167555     1.37470
O124        O  0.66664462  0.93858918  0.24974460    -0.56980
O125        O  0.72744510  0.94720019  0.31098261    -0.55790
C126        C  0.65119654  0.86469807  0.29531398     0.77970
O127        O  0.70010732  0.92735826  0.34349983    -0.58160
O128        O  0.65275043  0.95556553  0.29139128    -0.56610
O129        O  0.72371435  0.87658048  0.27543123    -0.56600
O130        O  0.64233207  0.89051201  0.28962780    -0.55770
O131        O  0.71354684  0.77551169  0.10019864    -0.56980
C132        C  0.74297682  0.84003825  0.05674556     0.75650
O133        O  0.77774838  0.80182591  0.14884529    -0.58140
C134        C  0.71908980  0.75756908  0.12067600     0.75620
C135        C  0.80873748  0.76330363  0.06647647     0.78010
Cd136      Cd  0.76378386  0.79602613  0.09710870     1.37470
O137        O  0.72974857  0.81578829  0.06072116    -0.56980
O138        O  0.78223532  0.76296722  0.05888704    -0.55790
C139        C  0.77222665  0.82919428  0.15029452     0.77970
O140        O  0.81486101  0.77924888  0.08827084    -0.58160
O141        O  0.76646204  0.84364383  0.07094875    -0.56610
O142        O  0.74541855  0.75634526  0.12886952    -0.56600
O143        O  0.76580751  0.84176844  0.12651329    -0.55770
O144        O  0.54096693  0.75792421  0.19794005    -0.56980
C145        C  0.58914759  0.76158945  0.25516709     0.75650
O146        O  0.55590639  0.66366069  0.22809438    -0.58140
C147        C  0.52820172  0.74449112  0.17746430     0.75620
C148        C  0.61956896  0.71060782  0.18130369     0.78010
Cd149      Cd  0.56786936  0.71609745  0.21729306     1.37470
O150        O  0.56673092  0.76455070  0.23926492    -0.56980
O151        O  0.59426703  0.71291990  0.17050800    -0.55790
C152        C  0.53852333  0.66927818  0.24882838     0.77970
O153        O  0.62058939  0.70675299  0.20861873    -0.58160
O154        O  0.60058913  0.73606742  0.25608355    -0.56610
O155        O  0.53175660  0.71671276  0.17646552    -0.56600
O156        O  0.53522155  0.69629121  0.25489347    -0.55770
O157        O  0.96692071  0.01435552  0.66467009    -0.56980
C158        C  0.89249486  0.98874028  0.70541903     0.75650
O159        O  0.91181989  0.94554439  0.62393229    -0.58140
C160        C  0.98031285  0.00766462  0.64134205     0.75620
C161        C  0.96978629  0.92178416  0.69454425     0.78010
Cd162      Cd  0.93772858  0.96885812  0.66654815     1.37470
O163        O  0.91833805  0.99839358  0.70770349    -0.56980
O164        O  0.97513711  0.94880518  0.69879095    -0.55790
C165        C  0.90616291  0.97071987  0.61288640     0.77970
O166        O  0.94943085  0.91607908  0.67663790    -0.58160
O167        O  0.88823354  0.96870663  0.68675949    -0.56610
O168        O  0.97615211  0.98184342  0.63160589    -0.56600
O169        O  0.91417992  0.99314565  0.62711318    -0.55770
O170        O  0.96203614  0.16117051  0.52687680    -0.56980
C171        C  0.99186220  0.20465641  0.58811618     0.75650
O172        O  0.02483682  0.10929976  0.55140077    -0.58140
C173        C  0.96648195  0.14204438  0.50723010     0.75620
C174        C  0.05642565  0.19407430  0.51259798     0.78010
Cd175      Cd  0.01235341  0.16260778  0.54553244     1.37460
O176        O  0.97762005  0.19898083  0.56511029    -0.56980
O177        O  0.02937626  0.19863095  0.50996221    -0.55790
C178        C  0.02048095  0.10847161  0.57863379     0.77970
O179        O  0.06364824  0.17420179  0.53071842    -0.58160
O180        O  0.01622506  0.19157530  0.59096054    -0.56610
O181        O  0.99250817  0.13286576  0.50482156    -0.56600
O182        O  0.01507472  0.13298430  0.59065516    -0.55770
O183        O  0.77942357  0.06402839  0.50255086    -0.56980
C184        C  0.84487586  0.00965779  0.51087750     0.75650
O185        O  0.80629889  0.03054141  0.41667562    -0.58140
C186        C  0.77194366  0.08656770  0.48787647     0.75620
C187        C  0.86424316  0.08629707  0.46247982     0.78010
Cd188      Cd  0.81587008  0.04587695  0.46794367     1.37470
O189        O  0.81854553  0.01753350  0.51441250    -0.56980
O190        O  0.84163173  0.09183508  0.47733054    -0.55790
C191        C  0.78779402  0.01086903  0.42326447     0.77970
O192        O  0.86360984  0.06280134  0.44739012    -0.58160
O193        O  0.85648585  0.01622090  0.48676258    -0.56610
O194        O  0.78374076  0.08939707  0.46306183    -0.56600
O195        O  0.78309221  0.00729622  0.45014460    -0.55770
O196        O  0.98089890  0.69934039  0.95349694    -0.56980
C197        C  0.98180128  0.63731815  0.00864736     0.75650
O198        O  0.88997495  0.68260575  0.97798424    -0.58140
C199        C  0.96719610  0.70984906  0.93182087     0.75620
C200        C  0.93517998  0.61786876  0.92997492     0.78010
Cd201      Cd  0.94139395  0.66663645  0.96992257     1.37460
O202        O  0.98634372  0.66333155  0.99950978    -0.56980
O203        O  0.94871475  0.64135944  0.92393514    -0.55790
C204        C  0.89510952  0.69640720  0.00140839     0.77970
O205        O  0.92167451  0.61768875  0.95409593    -0.58160
O206        O  0.95777079  0.62579619  0.00124709    -0.56610
O207        O  0.94088984  0.70168814  0.92901098    -0.56600
O208        O  0.92118889  0.69552102  0.01039435    -0.55770
O209        O  0.13449765  0.53354491  0.99304117    -0.56980
C210        C  0.17901524  0.58623527  0.02572592     0.75650
O211        O  0.08314686  0.54791845  0.05597227    -0.58140
C212        C  0.11499482  0.51382369  0.99404063     0.75620
C213        C  0.16425411  0.50876453  0.08961589     0.78010
Cd214      Cd  0.13599034  0.54416901  0.04508300     1.37470
O215        O  0.17656194  0.56086501  0.01433911    -0.56980
O216        O  0.16291054  0.50082549  0.06329979    -0.55790
C217        C  0.08173650  0.57571804  0.05322809     0.77970
O218        O  0.15164787  0.53289635  0.09577185    -0.58160
O219        O  0.16254298  0.59143106  0.04729226    -0.56610
O220        O  0.10651254  0.50634035  0.01925041    -0.56600
O221        O  0.10585648  0.58894721  0.05057040    -0.55770
O222        O  0.98920224  0.51961759  0.84190442    -0.56980
C223        C  0.05013935  0.48950345  0.79697910     0.75650
O224        O  0.02981773  0.45626907  0.89372064    -0.58140
C225        C  0.97483812  0.51731977  0.86531335     0.75620
C226        C  0.97867409  0.42471541  0.81727031     0.78010
Cd227      Cd  0.01253194  0.47128363  0.84361870     1.37470
O228        O  0.02801378  0.50435934  0.80480184    -0.56980
O229        O  0.97249260  0.45179013  0.81509312    -0.55790
C230        C  0.05247821  0.47232520  0.89231051     0.77970
O231        O  0.00032379  0.41843220  0.83346514    -0.58160
O232        O  0.05396902  0.46492495  0.80974948    -0.56610
O233        O  0.97644787  0.49253326  0.87809367    -0.56600
O234        O  0.05731737  0.48442035  0.86800559    -0.55770
O235        O  0.92424434  0.25549816  0.69927322    -0.56980
C236        C  0.86520435  0.24352135  0.75596685     0.75650
O237        O  0.89780419  0.34124353  0.73283092    -0.58140
C238        C  0.92937874  0.26985645  0.67611456     0.75620
C239        C  0.83518912  0.29580810  0.68295997     0.78010
Cd240      Cd  0.88719571  0.28944861  0.71827061     1.37460
O241        O  0.88585720  0.23918513  0.73814192    -0.56980
O242        O  0.85918172  0.28631272  0.67304127    -0.55790
C243        C  0.91641425  0.33438735  0.75219002     0.77970
O244        O  0.83575268  0.30529144  0.70891921    -0.58160
O245        O  0.85516332  0.26958093  0.75692461    -0.56610
O246        O  0.91622793  0.29437795  0.67328460    -0.56600
O247        O  0.92115860  0.30712412  0.75538440    -0.55770
O248        O  0.73905507  0.08959522  0.74800392    -0.56980
C249        C  0.80238477  0.04962485  0.76989027     0.75650
O250        O  0.77638572  0.14496964  0.81116979    -0.58140
C251        C  0.72854331  0.11551562  0.74804095     0.75620
C252        C  0.73093056  0.06590762  0.84099548     0.78010
Cd253      Cd  0.76433114  0.09359739  0.79483114     1.37470
O254        O  0.77941238  0.05840419  0.75704549    -0.56980
O255        O  0.71895681  0.07727263  0.81888629    -0.55790
C256        C  0.80202422  0.14441015  0.80077288     0.77970
O257        O  0.75831381  0.06896384  0.84286203    -0.58160
O258        O  0.80654450  0.05977986  0.79524929    -0.56610
O259        O  0.73322943  0.13072589  0.77072473    -0.56600
O260        O  0.81053234  0.11977092  0.79108951    -0.55770
O261        O  0.73938944  0.24044290  0.59623097    -0.56980
C262        C  0.70881983  0.17478721  0.55233590     0.75650
O263        O  0.67295217  0.20123481  0.64536807    -0.58140
C264        C  0.73549189  0.25541144  0.61919984     0.75620
C265        C  0.64433490  0.24883939  0.56932118     0.78010
Cd266      Cd  0.69142351  0.21633871  0.59627757     1.37460
O267        O  0.72239656  0.19886014  0.55603749    -0.56980
O268        O  0.67085515  0.25596422  0.56659808    -0.55790
C269        C  0.68919845  0.17849472  0.64671687     0.77970
O270        O  0.63921822  0.22685414  0.58561420    -0.58160
O271        O  0.68603209  0.17107924  0.56751504    -0.56610
O272        O  0.71047431  0.25338707  0.63079114    -0.56600
O273        O  0.70428651  0.17295844  0.62432624    -0.55770
O274        O  0.42044325  0.50402309  0.30142087    -0.56980
C275        C  0.47938005  0.49413282  0.36969703     0.75650
O276        O  0.45601487  0.58638155  0.33427522    -0.58140
C277        C  0.39705533  0.51888281  0.29847719     0.75620
C278        C  0.40004779  0.53487287  0.38922901     0.78010
Cd279      Cd  0.44008230  0.53447472  0.34117744     1.37460
O280        O  0.46880083  0.48805053  0.34487555    -0.56980
O281        O  0.40230910  0.51400113  0.37110336    -0.55790
C282        C  0.47352844  0.58060400  0.31360994     0.77970
O283        O  0.41642048  0.55713245  0.38502872    -0.58160
O284        O  0.47403686  0.51968455  0.37950434    -0.56610
O285        O  0.39476806  0.54204029  0.31375531    -0.56600
O286        O  0.47555290  0.55370172  0.30644589    -0.55770
O287        O  0.31105080  0.49368572  0.49180791    -0.56980
C288        C  0.26947370  0.43259394  0.51468949     0.75650
O289        O  0.36568995  0.45588555  0.55107461    -0.58140
C290        C  0.33587630  0.50587055  0.49274284     0.75620
C291        C  0.28900719  0.50317184  0.58682549     0.78010
Cd292      Cd  0.31381988  0.46982167  0.53913365     1.37470
O293        O  0.27823958  0.45599565  0.50247801    -0.56980
O294        O  0.28875390  0.51207918  0.56077227    -0.55790
C295        C  0.36352037  0.43102864  0.53858540     0.77970
O296        O  0.30166047  0.47863287  0.59129954    -0.58160
O297        O  0.27890752  0.42772063  0.54025403    -0.56610
O298        O  0.34964568  0.50387618  0.51663219    -0.56600
O299        O  0.33818198  0.42308267  0.53118011    -0.55770
O300        O  0.46151055  0.35105533  0.47360866    -0.56980
C301        C  0.49433855  0.29698084  0.42584779     0.75650
O302        O  0.52156972  0.39446593  0.46277457    -0.58140
C303        C  0.46352805  0.36452340  0.49767408     0.75620
C304        C  0.55740236  0.31312823  0.50235495     0.78010
Cd305      Cd  0.51320807  0.34107448  0.46686746     1.37460
O306        O  0.48151889  0.30100702  0.44999702    -0.56980
O307        O  0.53079035  0.30588509  0.50338673    -0.55790
C308        C  0.52228471  0.39525404  0.43522363     0.77970
O309        O  0.56377511  0.33369601  0.48476935    -0.58160
O310        O  0.51700672  0.31234094  0.42147600    -0.56610
O311        O  0.48870882  0.36522710  0.50909119    -0.56600
O312        O  0.52310310  0.37051571  0.42243820    -0.55770
C313        C  0.38913933  0.41344655  0.52943331     0.00680
C314        C  0.41160763  0.40607254  0.54899649    -0.11200
C315        C  0.43593930  0.38944452  0.53962289     0.02910
C316        C  0.43788241  0.38016687  0.51018535     0.00590
C317        C  0.41534827  0.38789776  0.49087436    -0.11140
C318        C  0.39146982  0.40458426  0.50004684     0.02800
H319        H  0.41004187  0.41307895  0.57153926     0.15780
H320        H  0.41683038  0.38183588  0.46804554     0.15780
C321        C  0.37068853  0.41418697  0.47822061     0.37430
C322        C  0.45817231  0.38183903  0.56068116     0.37340
N323        N  0.35429184  0.42217314  0.46067351    -0.42910
N324        N  0.47596310  0.37568842  0.57759499    -0.42910
C325        C  0.49540950  0.47188244  0.38726593     0.00680
C326        C  0.51237954  0.45022411  0.37326529    -0.11200
C327        C  0.52399452  0.42619564  0.38888733     0.02910
C328        C  0.51836631  0.42343949  0.41907061     0.00590
C329        C  0.50331407  0.44634043  0.43332557    -0.11140
C330        C  0.49153487  0.47014515  0.41779638     0.02800
H331        H  0.51582857  0.45159604  0.34991645     0.15780
H332        H  0.49851443  0.44448201  0.45641034     0.15780
C333        C  0.47279465  0.49049168  0.43339197     0.37430
C334        C  0.54119983  0.40456212  0.37334500     0.37340
N335        N  0.45754779  0.50653885  0.44587725    -0.42910
N336        N  0.55514839  0.38736180  0.36085598    -0.42910
C337        C  0.38010022  0.53217492  0.41455307     0.00680
C338        C  0.38725772  0.54618041  0.44094388    -0.11200
C339        C  0.37215817  0.53941544  0.46676273     0.02910
C340        C  0.34900332  0.51884544  0.46617136     0.00590
C341        C  0.34027688  0.50702685  0.43932222    -0.11140
C342        C  0.35570453  0.51303795  0.41381293     0.02800
H343        H  0.40574503  0.56108875  0.44179135     0.15780
H344        H  0.32243110  0.49133341  0.43846420     0.15780
C345        C  0.34659748  0.49795736  0.38760011     0.37430
C346        C  0.38111825  0.55350249  0.49350717     0.37340
N347        N  0.33927302  0.48540215  0.36689719    -0.42910
N348        N  0.38825799  0.56486473  0.51493492    -0.42910
C349        C  0.62105819  0.26545651  0.55374736     0.00680
C350        C  0.62765655  0.29373031  0.54289947    -0.11200
C351        C  0.60734117  0.30986767  0.52647998     0.02910
C352        C  0.57958944  0.29770731  0.52047794     0.00590
C353        C  0.57275741  0.26969051  0.53182307    -0.11140
C354        C  0.59311094  0.25350107  0.54817660     0.02800
H355        H  0.64890753  0.30335612  0.54719369     0.15780
H356        H  0.55158498  0.25998000  0.52732476     0.15780
C357        C  0.58499913  0.22423506  0.55771011     0.37430
C358        C  0.61552954  0.33901480  0.51666962     0.37340
N359        N  0.57839890  0.20075947  0.56519527    -0.42910
N360        N  0.62218091  0.36238531  0.50891760    -0.42910
C361        C  0.71299006  0.12818433  0.72244640     0.00680
C362        C  0.69727901  0.15474274  0.72582718    -0.11200
C363        C  0.68686917  0.17052226  0.70159733     0.02910
C364        C  0.69243720  0.15984799  0.67319196     0.00590
C365        C  0.70577596  0.13201542  0.67002142    -0.11140
C366        C  0.71603596  0.11618116  0.69414254     0.02800
H367        H  0.69420605  0.16394553  0.74743699     0.15780
H368        H  0.70969269  0.12321287  0.64837567     0.15780
C369        C  0.73152691  0.08886402  0.68867990     0.37430
C370        C  0.67233320  0.19841121  0.70663994     0.37340
N371        N  0.74399759  0.06704407  0.68418864    -0.42910
N372        N  0.66062296  0.22071473  0.71081886    -0.42910
C373        C  0.82057558  0.17111991  0.79715032     0.00680
C374        C  0.84911177  0.16712468  0.78642145    -0.11200
C375        C  0.86496545  0.19066376  0.77468005     0.02910
C376        C  0.85230298  0.21918257  0.77351082     0.00590
C377        C  0.82519354  0.22382383  0.78726776    -0.11140
C378        C  0.80932817  0.20020238  0.79909599     0.02800
H379        H  0.85855581  0.14512140  0.78559160     0.15780
H380        H  0.81549409  0.24572877  0.78736269     0.15780
C381        C  0.78095239  0.20643843  0.81143137     0.37430
C382        C  0.89368404  0.18443692  0.76307818     0.37340
N383        N  0.75826412  0.21161415  0.82137566    -0.42910
N384        N  0.91667533  0.17936882  0.75378756    -0.42910
C385        C  0.75942524  0.27263603  0.63302191     0.00680
C386        C  0.75603519  0.28195831  0.66206986    -0.11200
C387        C  0.77988606  0.29228542  0.67829918     0.02910
C388        C  0.80794971  0.29337454  0.66542134     0.00590
C389        C  0.81057034  0.28717481  0.63551024    -0.11140
C390        C  0.78672653  0.27702345  0.61926418     0.02800
H391        H  0.73507722  0.27944954  0.67281771     0.15780
H392        H  0.83175625  0.28877582  0.62502541     0.15780
C393        C  0.79136611  0.27039566  0.58882085     0.37430
C394        C  0.77512992  0.29938961  0.70860703     0.37340
N395        N  0.79513020  0.26514500  0.56442252    -0.42910
N396        N  0.77118971  0.30507403  0.73288187    -0.42910
C397        C  0.93193435  0.35701795  0.76987299     0.00680
C398        C  0.92744718  0.38695209  0.76323231    -0.11200
C399        C  0.94205001  0.40925208  0.77844007     0.02910
C400        C  0.96176830  0.40187942  0.80120774     0.00590
C401        C  0.96605166  0.37195661  0.80809557    -0.11140
C402        C  0.95141225  0.34961613  0.79284647     0.02800
H403        H  0.91270116  0.39309000  0.74570538     0.15780
H404        H  0.98098778  0.36589780  0.82548845     0.15780
C405        C  0.95696405  0.31942108  0.80150955     0.37430
C406        C  0.93682583  0.43937765  0.76932216     0.37340
N407        N  0.96146942  0.29526125  0.80853530    -0.42600
N408        N  0.93261138  0.46346870  0.76190307    -0.42910
C409        C  0.07132375  0.47940873  0.91779941     0.00680
C410        C  0.08811894  0.50530684  0.91608867    -0.11200
C411        C  0.10296056  0.51642230  0.94026095     0.02910
C412        C  0.10189382  0.50117792  0.96715366     0.00590
C413        C  0.08623371  0.47447754  0.96865252    -0.11140
C414        C  0.07103550  0.46350108  0.94431126     0.02800
H415        H  0.08848403  0.51803422  0.89604429     0.15780
H416        H  0.08542756  0.46236748  0.98904500     0.15780
C417        C  0.05556499  0.43592387  0.94718373     0.37430
C418        C  0.11713643  0.54474126  0.93706275     0.37340
N419        N  0.04334089  0.41370770  0.94956999    -0.42910
N420        N  0.12824988  0.56752566  0.93443547    -0.42910
C421        C  0.00416130  0.62094008  0.02581800     0.00680
C422        C  0.02655967  0.63690722  0.03956797    -0.11200
C423        C  0.05099010  0.62250182  0.05145603     0.02910
C424        C  0.05341969  0.59141788  0.04957743     0.00590
C425        C  0.02972622  0.57533857  0.03842658    -0.11140
C426        C  0.00539036  0.58967477  0.02637940     0.02800
H427        H  0.02558008  0.66085544  0.04002787     0.15780
H428        H  0.03120060  0.55145891  0.03685609     0.15780
C429        C  0.98357102  0.57156089  0.01239546     0.37430
C430        C  0.07350429  0.64026001  0.06475096     0.37340
N431        N  0.96631891  0.55683538  0.00110958    -0.42910
N432        N  0.09144221  0.65457275  0.07548541    -0.42910
C433        C  0.95859421  0.54275536  0.87806756     0.00680
C434        C  0.94233349  0.53850433  0.90375027    -0.11200
C435        C  0.93166280  0.56259635  0.91984746     0.02910
C436        C  0.93764513  0.59172969  0.91047712     0.00590
C437        C  0.95106461  0.59577472  0.88322939    -0.11140
C438        C  0.96149246  0.57182992  0.86703196     0.02800
H439        H  0.93908300  0.51632499  0.91209179     0.15780
H440        H  0.95506833  0.61795889  0.87521973     0.15780
C441        C  0.97672913  0.57829449  0.84019851     0.37430
C442        C  0.91602319  0.55659719  0.94650242     0.37340
N443        N  0.98898216  0.58359141  0.81876513    -0.42910
N444        N  0.90333475  0.55164222  0.96775847    -0.42910
C445        C  0.75155711  0.10889246  0.50011874     0.00680
C446        C  0.73298253  0.10032541  0.52293868    -0.11200
C447        C  0.71709470  0.12123716  0.53889399     0.02910
C448        C  0.72015766  0.15163982  0.53250356     0.00590
C449        C  0.73716989  0.16007793  0.50846940    -0.11140
C450        C  0.75242489  0.13904726  0.49196617     0.02800
H451        H  0.73165440  0.07721229  0.52907755     0.15780
H452        H  0.73922947  0.18331957  0.50304809     0.15780
C453        C  0.76979629  0.14940269  0.46778778     0.37430
C454        C  0.69958383  0.11084696  0.56298326     0.37340
N455        N  0.78345332  0.15784402  0.44827468    -0.42910
N456        N  0.68554476  0.10241129  0.58222754    -0.42910
C457        C  0.97982257  0.22476623  0.61071446     0.00680
C458        C  0.95913313  0.24618016  0.60237355    -0.11200
C459        C  0.94394364  0.26285148  0.62321030     0.02910
C460        C  0.94875577  0.25756443  0.65321752     0.00590
C461        C  0.97066423  0.23747720  0.66148883    -0.11140
C462        C  0.98648314  0.22149667  0.64065019     0.02800
H463        H  0.95422595  0.24939601  0.57945099     0.15780
H464        H  0.97495323  0.23365018  0.68444885     0.15780
C465        C  0.00836792  0.20100978  0.65096279     0.37430
C466        C  0.92239904  0.28386753  0.61305430     0.37340
N467        N  0.02606433  0.18494207  0.65962117    -0.42910
N468        N  0.90525199  0.30077529  0.60479629    -0.42910
C469        C  0.94205156  0.13055691  0.48908428     0.00680
C470        C  0.91521095  0.14566069  0.48986175    -0.11200
C471        C  0.88985127  0.13312694  0.47826251     0.02910
C472        C  0.89093026  0.10471752  0.46550913     0.00590
C473        C  0.91838271  0.09139363  0.46123160    -0.11140
C474        C  0.94381979  0.10378861  0.47317431     0.02800
H475        H  0.91365014  0.16681846  0.50085923     0.15780
H476        H  0.91967800  0.06978719  0.45108319     0.15780
C477        C  0.97067388  0.08708581  0.47092553     0.37430
C478        C  0.86291679  0.14961764  0.48082410     0.37340
N479        N  0.99209856  0.07352899  0.46917853    -0.42910
N480        N  0.84154013  0.16315600  0.48303805    -0.42910
C481        C  0.86816332  0.00126232  0.72253201     0.00680
C482        C  0.87135210  0.00520378  0.75264514    -0.11200
C483        C  0.84939973  0.01909497  0.76905813     0.02910
C484        C  0.82400051  0.03017417  0.75502197     0.00590
C485        C  0.82052373  0.02507769  0.72498584    -0.11140
C486        C  0.84222074  0.01079100  0.70876115     0.02800
H487        H  0.89111387  0.99749685  0.76334207     0.15780
H488        H  0.80130897  0.03337543  0.71374979     0.15780
C489        C  0.83827108  0.00822140  0.67760192     0.37430
C490        C  0.85369444  0.02155698  0.80013829     0.37340
N491        N  0.83522084  0.00629029  0.65263196    -0.42910
N492        N  0.85714445  0.02330389  0.82506883    -0.42910
C493        C  0.99794001  0.02986508  0.62529344     0.00680
C494        C  0.00883998  0.05429939  0.64058280    -0.11200
C495        C  0.01953272  0.07910043  0.62579454     0.02910
C496        C  0.01861412  0.08017616  0.59501824     0.00590
C497        C  0.01076222  0.05450157  0.57976749    -0.11140
C498        C  0.00061796  0.02941074  0.59453050     0.02800
H499        H  0.00800511  0.05450429  0.66421222     0.15780
H500        H  0.01045038  0.05470093  0.55612481     0.15780
C501        C  0.99089300  0.00467043  0.57722724     0.37430
C502        C  0.03127201  0.10302007  0.64285249     0.37340
N503        N  0.98320548  0.98490248  0.56322598    -0.42910
N504        N  0.04112806  0.12173110  0.65687036    -0.42910
C505        C  0.89209236  0.97518297  0.58431539     0.00680
C506        C  0.90444172  0.99679236  0.56634921    -0.11200
C507        C  0.88990072  0.00710686  0.54171059     0.02910
C508        C  0.86210559  0.99583807  0.53450164     0.00590
C509        C  0.85005018  0.97326819  0.55179671    -0.11140
C510        C  0.86505700  0.96258302  0.57648151     0.02800
H511        H  0.92504667  0.00684851  0.57248323     0.15780
H512        H  0.82866653  0.96454284  0.54644234     0.15780
C513        C  0.85152591  0.94025046  0.59434868     0.37430
C514        C  0.90289512  0.03145824  0.52615685     0.37340
N515        N  0.84068562  0.92226943  0.60862083    -0.42910
N516        N  0.91363180  0.05116475  0.51428521    -0.42910
C517        C  0.49058218  0.60365693  0.29795239     0.00680
C518        C  0.50518756  0.59565183  0.27213114    -0.11200
C519        C  0.52101829  0.61631875  0.25584751     0.02910
C520        C  0.52268646  0.64597432  0.26535282     0.00590
C521        C  0.50830948  0.65393422  0.29131042    -0.11140
C522        C  0.49244825  0.63325730  0.30758678     0.02800
H523        H  0.50394638  0.57309859  0.26425410     0.15780
H524        H  0.50946811  0.67652704  0.29908718     0.15780
C525        C  0.47873857  0.64319910  0.33418465     0.37430
C526        C  0.53453063  0.60638669  0.22913770     0.37340
N527        N  0.46784322  0.65132157  0.35549557    -0.42910
N528        N  0.54524387  0.59826063  0.20773583    -0.42910
C529        C  0.83104265  0.74601697  0.05033858     0.00680
C530        C  0.82630819  0.74009234  0.02064757    -0.11200
C531        C  0.84661910  0.72390472  0.00425299     0.02910
C532        C  0.87226809  0.71292039  0.01768903     0.00590
C533        C  0.87684657  0.71866455  0.04745920    -0.11140
C534        C  0.85656945  0.73491668  0.06380946     0.02800
H535        H  0.80684833  0.74862803  0.01000395     0.15780
H536        H  0.89629412  0.71018776  0.05815720     0.15780
C537        C  0.86201680  0.73876325  0.09457505     0.37430
C538        C  0.84105902  0.72013276  0.97349441     0.37340
N539        N  0.86636697  0.74168245  0.11925440    -0.42910
N540        N  0.83656469  0.71729929  0.94882905    -0.42910
C541        C  0.69574584  0.74001483  0.13500444     0.00680
C542        C  0.66998180  0.73397194  0.11951971    -0.11200
C543        C  0.64561068  0.72155871  0.13338604     0.02910
C544        C  0.64651245  0.71545886  0.16367957     0.00590
C545        C  0.67315322  0.71916625  0.17850130    -0.11140
C546        C  0.69757612  0.73132970  0.16459219     0.02800
H547        H  0.66854608  0.73979547  0.09661933     0.15780
H548        H  0.67445656  0.71440171  0.20163905     0.15780
C549        C  0.72326148  0.73687003  0.18206104     0.37430
C550        C  0.61982658  0.71628665  0.11601164     0.37340
N551        N  0.74374873  0.74131754  0.19618106    -0.42910
N552        N  0.59927071  0.71202024  0.10193554    -0.42910
C553        C  0.73822769  0.96049400  0.36033434     0.00680
C554        C  0.76492385  0.97355245  0.35226505    -0.11200
C555        C  0.78161529  0.98974337  0.37222722     0.02910
C556        C  0.77169480  0.99326545  0.40115766     0.00590
C557        C  0.74522723  0.97988472  0.40936678    -0.11140
C558        C  0.72846502  0.96377634  0.38938628     0.02800
H559        H  0.77296484  0.97106944  0.33016563     0.15780
H560        H  0.73718607  0.98249997  0.43145657     0.15780
C561        C  0.70096380  0.95184093  0.39926462     0.37430
C562        C  0.80912038  0.00176652  0.36246139     0.37340
N563        N  0.67891026  0.94242527  0.40733065    -0.42910
N564        N  0.83118189  0.01128090  0.35453388    -0.42910
C565        C  0.74800736  0.87332931  0.22896866     0.00680
C566        C  0.75939311  0.88984488  0.20568652    -0.11200
C567        C  0.77059357  0.87588640  0.18082563     0.02910
C568        C  0.76990715  0.84478723  0.17863215     0.00590
C569        C  0.76161379  0.82828228  0.20316732    -0.11140
C570        C  0.75076758  0.84214188  0.22821395     0.02800
H571        H  0.75862221  0.91379464  0.20642604     0.15780
H572        H  0.76145986  0.80434400  0.20204595     0.15780
C573        C  0.74056432  0.82347283  0.25162378     0.37430
C574        C  0.78294607  0.89403730  0.15816579     0.37340
N575        N  0.73242679  0.80838842  0.27029648    -0.42910
N576        N  0.79341470  0.90892122  0.14055858    -0.42910
C577        C  0.60269526  0.78775256  0.26888017     0.00680
C578        C  0.60127749  0.81404590  0.25291842    -0.11200
C579        C  0.61690584  0.83887514  0.26139460     0.02910
C580        C  0.63320381  0.83866393  0.28758580     0.00590
C581        C  0.63430691  0.81248128  0.30412975    -0.11140
C582        C  0.61935220  0.78695658  0.29482663     0.02800
H583        H  0.58957045  0.81460922  0.23232538     0.15780
H584        H  0.64722884  0.81180476  0.32393560     0.15780
C585        C  0.62121658  0.76045549  0.31222699     0.37430
C586        C  0.61888578  0.86258104  0.24046311     0.37340
N587        N  0.62261961  0.73918794  0.32618790    -0.42910
N588        N  0.62082100  0.88072650  0.22283923    -0.42910
C589        C  0.21513846  0.46081920  0.15335496     0.00680
C590        C  0.20328635  0.44586148  0.12933924    -0.11200
C591        C  0.18609948  0.46076084  0.10867375     0.02910
C592        C  0.18064464  0.49140670  0.11172850     0.00590
C593        C  0.19248121  0.50631392  0.13577487    -0.11140
C594        C  0.20974248  0.49148012  0.15633900     0.02800
H595        H  0.20704286  0.42230891  0.12694236     0.15780
H596        H  0.18893655  0.52990940  0.13811974     0.15780
C597        C  0.22276599  0.50868548  0.17943183     0.37430
C598        C  0.17362409  0.44378324  0.08514410     0.37340
N599        N  0.23331956  0.52252606  0.19781747    -0.42910
N600        N  0.16356223  0.43012512  0.06635664    -0.42910
C601        C  0.32880989  0.47858629  0.24826164     0.00680
C602        C  0.32168492  0.49721975  0.27168304    -0.11200
C603        C  0.34336558  0.51256016  0.28691719     0.02910
C604        C  0.37308523  0.50861259  0.27934625     0.00590
C605        C  0.38003227  0.49178973  0.25463974    -0.11140
C606        C  0.35822717  0.47736079  0.23868848     0.02800
H607        H  0.29915343  0.49902444  0.27883979     0.15780
H608        H  0.40271498  0.48929688  0.24817790     0.15780
C609        C  0.36707725  0.46064104  0.21338212     0.37430
C610        C  0.33446994  0.53061719  0.31131459     0.37340
N611        N  0.37428145  0.44756277  0.19292986    -0.42910
N612        N  0.32720405  0.54516173  0.33075993    -0.42910
C613        C  0.07828677  0.21101052  0.49537421     0.00680
C614        C  0.10779036  0.20243801  0.49656544    -0.11200
C615        C  0.12924965  0.21758122  0.48075654     0.02910
C616        C  0.12138989  0.24208147  0.46311983     0.00590
C617        C  0.09187993  0.25056058  0.46183609    -0.11140
C618        C  0.07045031  0.23552543  0.47770765     0.02800
H619        H  0.11421898  0.18368183  0.50986431     0.15780
H620        H  0.08544665  0.26939772  0.44864283     0.15780
C621        C  0.04078591  0.24638924  0.47566067     0.37430
C622        C  0.15900624  0.20706078  0.48297736     0.37340
N623        N  0.01707698  0.25523597  0.47396527    -0.42910
N624        N  0.18281703  0.19854124  0.48483797    -0.42910
C625        C  0.25093622  0.41113266  0.49888686     0.00680
C626        C  0.23086178  0.39345531  0.51419026    -0.11200
C627        C  0.21508357  0.37115226  0.49983392     0.02910
C628        C  0.22013407  0.36581139  0.46999585     0.00590
C629        C  0.23976393  0.38365887  0.45473518    -0.11140
C630        C  0.25483859  0.40634415  0.46865260     0.02800
H631        H  0.22773618  0.39686257  0.53737695     0.15780
H632        H  0.24366002  0.37953381  0.43175240     0.15780
C633        C  0.27537710  0.42312007  0.45144440     0.37430
C634        C  0.19497695  0.35320769  0.51631480     0.37340
N635        N  0.29167466  0.43647128  0.43740535    -0.42910
N636        N  0.17881872  0.33885025  0.52952990    -0.42910
C637        C  0.21661652  0.36994431  0.28766103     0.00680
C638        C  0.18773253  0.37635414  0.29607758    -0.11200
C639        C  0.17475068  0.36121515  0.31955024     0.02910
C640        C  0.19048460  0.33868772  0.33394423     0.00590
C641        C  0.21870117  0.33140328  0.32439003    -0.11140
C642        C  0.23196732  0.34699280  0.30180692     0.02800
H643        H  0.17574970  0.39377551  0.28501113     0.15780
H644        H  0.23101677  0.31423002  0.33554765     0.15780
C645        C  0.26144406  0.33896088  0.29353673     0.37430
C646        C  0.14537922  0.36878735  0.32823087     0.37340
N647        N  0.28504814  0.33255400  0.28695603    -0.42910
N648        N  0.12174576  0.37478408  0.33505344    -0.42910
C649        C  0.44995156  0.24547466  0.36078593     0.00680
C650        C  0.47445788  0.26225316  0.35293367    -0.11200
C651        C  0.49073820  0.27751604  0.37389918     0.02910
C652        C  0.48219068  0.27656582  0.40355021     0.00590
C653        C  0.45902992  0.25790018  0.41158446    -0.11140
C654        C  0.44300008  0.24234853  0.39063563     0.02800
H655        H  0.48029580  0.26436732  0.33011091     0.15780
H656        H  0.45246480  0.25645951  0.43425456     0.15780
C657        C  0.41816117  0.22536247  0.40035662     0.37430
C658        C  0.51501291  0.29511451  0.36387252     0.37340
N659        N  0.39826165  0.21181568  0.40825074    -0.42910
N660        N  0.53447292  0.30911114  0.35566249    -0.42910
C661        C  0.35259189  0.28534620  0.23377383     0.00680
C662        C  0.36681015  0.31276245  0.23280827    -0.11200
C663        C  0.35253296  0.33812239  0.22265456     0.02910
C664        C  0.32316050  0.33644641  0.21297662     0.00590
C665        C  0.31020909  0.30842620  0.21062354    -0.11140
C666        C  0.32457605  0.28298208  0.22083873     0.02800
H667        H  0.38867044  0.31489792  0.24172435     0.15780
H668        H  0.28796631  0.30655296  0.20267516     0.15780
C669        C  0.30924407  0.25520988  0.21911080     0.37430
C670        C  0.36830736  0.36565971  0.22422193     0.37340
N671        N  0.29689539  0.23298543  0.21761712    -0.42910
N672        N  0.38124827  0.38752022  0.22579778    -0.42910
C673        C  0.31214763  0.23101787  0.35169465     0.00680
C674        C  0.31160432  0.25867983  0.36565983    -0.11200
C675        C  0.28725004  0.26835724  0.38118954     0.02910
C676        C  0.26255003  0.24997024  0.38382133     0.00590
C677        C  0.26304256  0.22195455  0.37060078    -0.11140
C678        C  0.28763850  0.21224473  0.35477562     0.02800
H679        H  0.32995510  0.27363843  0.36355835     0.15780
H680        H  0.24402905  0.20780574  0.37229728     0.15780
C681        C  0.28678335  0.18328748  0.34168668     0.37430
C682        C  0.28738791  0.29842538  0.39186826     0.37340
N683        N  0.28599241  0.15999144  0.33133794    -0.42910
N684        N  0.28742594  0.32258317  0.40012764    -0.42910
C685        C  0.51131409  0.76093949  0.15519876     0.00680
C686        C  0.48586159  0.74867228  0.14313681    -0.11200
C687        C  0.46997555  0.76383357  0.12151794     0.02910
C688        C  0.48006333  0.79141499  0.11119582     0.00590
C689        C  0.50554535  0.80346090  0.12326187    -0.11140
C690        C  0.52104441  0.78871354  0.14507568     0.02800
H691        H  0.47833474  0.72729107  0.15067776     0.15780
H692        H  0.51354023  0.82461106  0.11552695     0.15780
C693        C  0.54770387  0.80207082  0.15558605     0.37430
C694        C  0.44415598  0.75012685  0.10961327     0.37340
N695        N  0.56906478  0.81276401  0.16394949    -0.42910
N696        N  0.42345005  0.73912321  0.10008783    -0.42910
C697        C  0.46457432  0.10844342  0.21360688     0.00680
C698        C  0.43449513  0.10417741  0.21823850    -0.11200
C699        C  0.41792967  0.12441367  0.23449625     0.02910
C700        C  0.43156944  0.14947096  0.24669506     0.00590
C701        C  0.46174369  0.15341354  0.24240057    -0.11140
C702        C  0.47826938  0.13323521  0.22621185     0.02800
H703        H  0.42373242  0.08517988  0.20869130     0.15780
H704        H  0.47264903  0.17231065  0.25198899     0.15780
C705        C  0.50940474  0.13796942  0.22403360     0.37430
C706        C  0.38689643  0.11946238  0.23719572     0.37340
N707        N  0.53436100  0.14177117  0.22249287    -0.42910
N708        N  0.36200948  0.11544087  0.23919814    -0.42910
C709        C  0.57904605  0.99979150  0.21961744     0.00680
C710        C  0.59448740  0.01488235  0.24156649    -0.11200
C711        C  0.61761041  0.00108930  0.25665479     0.02910
C712        C  0.62626761  0.97218093  0.24892925     0.00590
C713        C  0.61126807  0.95763823  0.22658340    -0.11140
C714        C  0.58752310  0.97066402  0.21246033     0.02800
H715        H  0.58835913  0.03738274  0.24706583     0.15780
H716        H  0.61796305  0.93560907  0.22024903     0.15780
C717        C  0.57293619  0.95376352  0.19007501     0.37430
C718        C  0.63283556  0.01738517  0.27897919     0.37340
N719        N  0.56118809  0.94011011  0.17228565    -0.42910
N720        N  0.64510648  0.03048868  0.29681884    -0.42910
C721        C  0.46375220  0.97483286  0.12084878     0.00680
C722        C  0.48124643  0.96331081  0.09863445    -0.11200
C723        C  0.47199511  0.93928904  0.08214742     0.02910
C724        C  0.44433824  0.92650053  0.08746579     0.00590
C725        C  0.42647254  0.93830342  0.10954609    -0.11140
C726        C  0.43594611  0.96265667  0.12610994     0.02800
H727        H  0.50278316  0.97255633  0.09479612     0.15780
H728        H  0.40530063  0.92853152  0.11383085     0.15780
C729        C  0.41675815  0.97527590  0.14774722     0.37430
C730        C  0.49247953  0.92674274  0.06155148     0.37340
N731        N  0.40132395  0.98569859  0.16489855    -0.42910
N732        N  0.50910729  0.91664020  0.04535043    -0.42910
C733        C  0.67824494  0.01638755  0.90128727     0.00680
C734        C  0.70721576  0.00780453  0.89601703    -0.11200
C735        C  0.72508850  0.02415779  0.87725586     0.02910
C736        C  0.71367301  0.04929367  0.86281220     0.00590
C737        C  0.68445907  0.05757976  0.86787522    -0.11140
C738        C  0.66687858  0.04161807  0.88727824     0.02800
H739        H  0.71606261  0.98851223  0.90702322     0.15780
H740        H  0.67537612  0.07668510  0.85676604     0.15780
C741        C  0.63707041  0.05104384  0.89193366     0.37430
C742        C  0.75468643  0.01402224  0.87257213     0.37340
N743        N  0.61315415  0.05855771  0.89562102    -0.42910
N744        N  0.77840491  0.00587648  0.86888271    -0.42910
C745        C  0.69959560  0.90523756  0.00360952     0.00680
C746        C  0.71903259  0.91424912  0.02549052    -0.11200
C747        C  0.73490695  0.89356265  0.04185421     0.02910
C748        C  0.73084814  0.86299882  0.03700447     0.00590
C749        C  0.71275142  0.85405910  0.01396360    -0.11140
C750        C  0.69750588  0.87474293  0.99703577     0.02800
H751        H  0.72124370  0.93757895  0.03042290     0.15780
H752        H  0.70992407  0.83068730  0.00957425     0.15780
C753        C  0.67871962  0.86368470  0.97423063     0.37430
C754        C  0.75395633  0.90457069  0.06434244     0.37340
N755        N  0.66379426  0.85469780  0.95591611    -0.42910
N756        N  0.76930516  0.91392344  0.08207624    -0.42910
C757        C  0.58923469  0.01870283  0.03433725     0.00680
C758        C  0.60469900  0.03611761  0.05445816    -0.11200
C759        C  0.59063555  0.04853904  0.07875616     0.02910
C760        C  0.56051596  0.04372149  0.08316545     0.00590
C761        C  0.54471910  0.02799178  0.06206023    -0.11140
C762        C  0.55873270  0.01514684  0.03808175     0.02800
H763        H  0.62800257  0.03937319  0.05164478     0.15780
H764        H  0.52166820  0.02361912  0.06552930     0.15780
C765        C  0.54167680  0.99598825  0.01952721     0.37430
C766        C  0.60753807  0.06603576  0.09887849     0.37340
N767        N  0.52803297  0.98042173  0.00489595    -0.42910
N768        N  0.62107175  0.08024787  0.11487999    -0.42910
C769        C  0.51334127  0.87044489  0.98701055     0.00680
C770        C  0.50982192  0.89353863  0.96670816    -0.11200
C771        C  0.53387643  0.90989913  0.95675715     0.02910
C772        C  0.56217552  0.90327602  0.96730459     0.00590
C773        C  0.56590663  0.87824754  0.98510957    -0.11140
C774        C  0.54202702  0.86202134  0.99516282     0.02800
H775        H  0.48803137  0.89997983  0.95981816     0.15780
H776        H  0.58756050  0.87237124  0.99289952     0.15780
C777        C  0.54782943  0.83869993  0.01594298     0.37430
C778        C  0.52849180  0.93438760  0.93729642     0.37340
N779        N  0.55257994  0.82020623  0.03275096    -0.42910
N780        N  0.52407723  0.95393897  0.92160816    -0.42910
C781        C  0.07164815  0.50138180  0.77580961     0.00680
C782        C  0.10015054  0.48969831  0.77582626    -0.11200
C783        C  0.12292248  0.50416525  0.76131646     0.02910
C784        C  0.11734777  0.53092415  0.74639556     0.00590
C785        C  0.08834743  0.54083469  0.74378002    -0.11140
C786        C  0.06555655  0.52637506  0.75824502     0.02800
H787        H  0.10508213  0.47006024  0.78850178     0.15780
H788        H  0.08360626  0.56090600  0.73170497     0.15780
C789        C  0.03634771  0.53821239  0.75519535     0.37430
C790        C  0.15178668  0.49118880  0.76238148     0.37340
N791        N  0.01294464  0.54768042  0.75271078    -0.42910
N792        N  0.17487432  0.48068146  0.76312048    -0.42910
C793        C  0.24107018  0.54841982  0.65456352     0.00680
C794        C  0.24820355  0.56330443  0.62869884    -0.11200
C795        C  0.26469047  0.54955012  0.60685024     0.02910
C796        C  0.27424684  0.51996268  0.61047385     0.00590
C797        C  0.26792255  0.50539939  0.63673328    -0.11140
C798        C  0.25151914  0.51918076  0.65863635     0.02800
H799        H  0.24083605  0.58587703  0.62544069     0.15780
H800        H  0.27505658  0.48273586  0.63988860     0.15780
C801        C  0.24493027  0.50214683  0.68444519     0.37430
C802        C  0.27159200  0.56663594  0.58116985     0.37340
N803        N  0.23968051  0.48840498  0.70506585    -0.42910
N804        N  0.27711740  0.58043388  0.56066126    -0.42910
C805        C  0.98678250  0.89857642  0.71000752     0.00680
C806        C  0.01499523  0.90551443  0.71999743    -0.11200
C807        C  0.03176269  0.88506057  0.73577715     0.02910
C808        C  0.02022607  0.85683774  0.74218548     0.00590
C809        C  0.99204530  0.84987153  0.73194519    -0.11140
C810        C  0.97535540  0.87030560  0.71606467     0.02800
H811        H  0.02413284  0.92710253  0.71535798     0.15780
H812        H  0.98268850  0.82841151  0.73668702     0.15780
C813        C  0.94614080  0.86199886  0.70749334     0.37430
C814        C  0.06075809  0.89376292  0.74467913     0.37340
N815        N  0.92270942  0.85525565  0.70076857    -0.42910
N816        N  0.08399975  0.90088030  0.75167628    -0.42910
C817        C  0.01091295  0.75719339  0.86315210     0.00680
C818        C  0.02361946  0.75587664  0.89097620    -0.11200
C819        C  0.00935012  0.74182131  0.91414732     0.02910
C820        C  0.98150754  0.72901245  0.90972611     0.00590
C821        C  0.96797434  0.73236354  0.88235887    -0.11140
C822        C  0.98241265  0.74616047  0.85916685     0.02800
H823        H  0.04536859  0.76473884  0.89434790     0.15780
H824        H  0.94643089  0.72318154  0.87863258     0.15780
C825        C  0.96737779  0.74898934  0.83161464     0.37430
C826        C  0.02414873  0.74051973  0.94193331     0.37340
N827        N  0.95528733  0.75141404  0.80957431    -0.42910
N828        N  0.03608943  0.73949069  0.96415924    -0.42910
C829        C  0.14118360  0.67693047  0.71483761     0.00680
C830        C  0.11067643  0.67696422  0.71066221    -0.11200
C831        C  0.09338058  0.70089236  0.71992322     0.02910
C832        C  0.10664093  0.72552940  0.73320684     0.00590
C833        C  0.13723555  0.72686739  0.73444524    -0.11140
C834        C  0.15452599  0.70291681  0.72572735     0.02800
H835        H  0.10004484  0.65752858  0.70188708     0.15780
H836        H  0.14770631  0.74584113  0.74439421     0.15780
C837        C  0.18572812  0.70522700  0.73004446     0.37430
C838        C  0.06211479  0.69950910  0.71597424     0.37340
N839        N  0.21067324  0.70711708  0.73379157    -0.42910
N840        N  0.03705945  0.69854998  0.71264479    -0.42910
C841        C  0.32965201  0.76774125  0.96004776     0.00680
C842        C  0.35537995  0.75294485  0.96816568    -0.11200
C843        C  0.37698283  0.76713688  0.98458889     0.02910
C844        C  0.37326912  0.79706686  0.99287493     0.00590
C845        C  0.34768446  0.81196581  0.98439307    -0.11140
C846        C  0.32602820  0.79770981  0.96809399     0.02800
H847        H  0.35823658  0.72984972  0.96248084     0.15780
H848        H  0.34468421  0.83499920  0.99023576     0.15780
C849        C  0.30074070  0.81470771  0.95927529     0.37430
C850        C  0.40200154  0.74988721  0.99369052     0.37340
N851        N  0.28053488  0.82838243  0.95215993    -0.42910
N852        N  0.42195513  0.73597645  0.00106682    -0.42910
C853        C  0.23013512  0.65231864  0.98145966     0.00680
C854        C  0.21483478  0.65992827  0.00685906    -0.11200
C855        C  0.19959320  0.63857214  0.02291773     0.02910
C856        C  0.19895341  0.60886297  0.01315942     0.00590
C857        C  0.21571588  0.60109902  0.98864426    -0.11140
C858        C  0.23116550  0.62236021  0.97282128     0.02800
H859        H  0.21420142  0.68282748  0.01381671     0.15780
H860        H  0.21574717  0.57846305  0.98088733     0.15780
C861        C  0.24575387  0.61302928  0.94643628     0.37430
C862        C  0.18423808  0.64820386  0.04871690     0.37340
N863        N  0.25729074  0.60548369  0.92525318    -0.42910
N864        N  0.17208200  0.65607818  0.06943319    -0.42910
C865        C  0.19682946  0.77225686  0.87315079     0.00680
C866        C  0.17328621  0.78658963  0.88696142    -0.11200
C867        C  0.14873472  0.79594523  0.87097844     0.02910
C868        C  0.14745170  0.79058174  0.84073427     0.00590
C869        C  0.17171595  0.77809398  0.82671898    -0.11140
C870        C  0.19628215  0.76900420  0.84245676     0.02800
H871        H  0.17344446  0.78921450  0.91045574     0.15780
H872        H  0.17072205  0.77375447  0.80346902     0.15780
C873        C  0.21907681  0.75367179  0.82667352     0.37430
C874        C  0.12417496  0.80843828  0.88644766     0.37340
N875        N  0.23716909  0.74128058  0.81392272    -0.42910
N876        N  0.10449226  0.81842313  0.89889167    -0.42910
C877        C  0.24616584  0.66235553  0.84386585     0.00680
C878        C  0.26731851  0.65048433  0.82492097    -0.11200
C879        C  0.25888694  0.63343795  0.80063658     0.02910
C880        C  0.22893948  0.62767813  0.79562081     0.00590
C881        C  0.20807409  0.64007186  0.81427123    -0.11140
C882        C  0.21622785  0.65775314  0.83761608     0.02800
H883        H  0.29031102  0.65429057  0.82919658     0.15780
H884        H  0.18497032  0.63702745  0.80983241     0.15780
C885        C  0.19310557  0.67247263  0.85353385     0.37430
C886        C  0.28121599  0.62168669  0.78166005     0.37340
N887        N  0.17460302  0.68446372  0.86606352    -0.42910
N888        N  0.29911373  0.61228823  0.76641188    -0.42910
loop_ 
_geom_bond_atom_site_label_1 
_geom_bond_atom_site_label_2 
_geom_bond_distance 
_geom_bond_site_symmetry_2 
_ccdc_geom_bond_type 
O1            C4   1.269       .  A
O1           Cd6   2.461       .  S
C2           O11   1.265       .  A
C2            O7   1.269       .  A
C2          C865   1.483       .  S
O3            C9   1.270       .  A
O3           Cd6   2.483       .  S
C4           O12   1.266       .  A
C4          C853   1.481       .  S
C5           O10   1.272       .  A
C5            O8   1.261       .  A
C5          C877   1.482       .  S
Cd6          O13   2.427       .  S
Cd6          O12   2.441       .  S
Cd6          O11   2.430       .  S
Cd6           O7   2.473       .  S
Cd6          O10   2.530       .  S
Cd6           O8   2.367       .  S
C9           O13   1.264       .  A
C9          C841   1.482       .  S
O14          C17   1.269       .  A
O14         Cd19   2.475       .  S
C15          O24   1.263       .  A
C15          O20   1.266       .  A
C15         C817   1.479       .  S
O16          C22   1.271       .  A
O16         Cd19   2.514       .  S
C17          O25   1.266       .  A
C17         C832   1.481       .  S
C18          O23   1.267       .  A
C18          O21   1.263       .  A
C18         C808   1.490       .  S
Cd19         O26   2.401       .  S
Cd19         O25   2.447       .  S
Cd19         O24   2.462       .  S
Cd19         O20   2.469       .  S
Cd19         O23   2.490       .  S
Cd19         O21   2.442       .  S
C22          O26   1.262       .  A
C22         C868   1.475       .  S
O27          C30   1.265       .  A
O27         Cd32   2.456       .  S
C28          O37   1.266       .  A
C28          O33   1.267       .  A
C28         C880   1.478       .  S
O29          C35   1.267       .  A
O29         Cd32   2.487       .  S
C30          O38   1.266       .  A
C30         C784   1.483       .  S
C31          O36   1.268       .  A
C31          O34   1.261       .  A
C31         C829   1.491       .  S
Cd32         O39   2.437       .  S
Cd32         O38   2.470       .  S
Cd32         O37   2.484       .  S
Cd32         O33   2.419       .  S
Cd32         O36   2.511       .  S
Cd32         O34   2.433       .  S
C35          O39   1.261       .  A
C35         C793   1.486       .  S
O40          C43   1.269   1_554  A
O40         Cd45   2.467   1_554  S
C41          O50   1.266   1_544  A
C41          O46   1.269   1_545  A
C41         C757   1.486       .  S
O42          C48   1.264       .  A
O42         Cd45   2.481       .  S
C43          O51   1.264       .  A
C43         C745   1.484   1_556  S
C44          O49   1.270       .  A
C44          O47   1.262       .  A
C44         C772   1.488       .  S
Cd45         O52   2.463   1_565  S
Cd45         O51   2.440       .  S
Cd45         O50   2.445       .  S
Cd45         O46   2.475   1_556  S
Cd45         O49   2.516       .  S
Cd45         O47   2.403       .  S
C48          O52   1.262   1_565  A
C48         C733   1.472   1_565  S
O53          C56   1.268       .  A
O53         Cd58   2.473   1_565  S
C54          O63   1.266       .  A
C54          O59   1.266       .  A
C54         C709   1.482   1_545  S
O55          C61   1.265       .  A
O55         Cd58   2.468       .  S
C56          O64   1.264   1_565  A
C56         C721   1.467       .  S
C57          O62   1.266       .  A
C57          O60   1.262       .  A
C57         C697   1.481       .  S
Cd58         O65   2.478       .  S
Cd58         O64   2.435       .  S
Cd58         O63   2.480       .  S
Cd58         O59   2.437       .  S
Cd58         O62   2.475       .  S
Cd58         O60   2.453       .  S
C61          O65   1.264       .  A
C61         C760   1.481       .  S
O66          C69   1.265       .  A
O66         Cd71   2.440       .  S
C67          O76   1.268       .  A
C67          O72   1.264       .  A
C67         C688   1.481       .  S
O68          C74   1.263       .  A
O68         Cd71   2.430       .  S
C69          O77   1.267       .  A
C69         C769   1.488   1_554  S
C70          O75   1.268       .  A
C70          O73   1.262       .  A
C70         C844   1.485   1_554  S
Cd71         O78   2.500       .  S
Cd71         O77   2.469       .  S
Cd71         O76   2.497       .  S
Cd71         O72   2.421       .  S
Cd71         O75   2.490       .  S
Cd71         O73   2.438       .  S
C74          O78   1.266       .  A
C74         C724   1.476       .  S
O79          C82   1.266       .  A
O79         Cd84   2.450       .  S
C80          O89   1.268       .  A
C80          O85   1.267       .  A
C80         C649   1.481       .  S
O81          C87   1.272       .  A
O81         Cd84   2.527       .  S
C82          O90   1.265       .  A
C82         C661   1.490       .  S
C83          O88   1.270       .  A
C83          O86   1.263       .  A
C83         C700   1.484       .  S
Cd84         O91   2.382       .  S
Cd84         O90   2.471       .  S
Cd84         O89   2.461       .  S
Cd84         O85   2.441       .  S
Cd84         O88   2.498       .  S
Cd84         O86   2.413       .  S
C87          O91   1.263       .  A
C87         C673   1.491       .  S
O92          C95   1.263       .  A
O92         Cd97   2.423       .  S
C93         O102   1.267       .  A
C93          O98   1.266       .  A
C93         C676   1.480       .  S
O94         C100   1.267       .  A
O94         Cd97   2.479       .  S
C95         O103   1.267       .  A
C95         C628   1.471       .  S
C96         O101   1.262       .  A
C96          O99   1.265       .  A
C96         C640   1.473       .  S
Cd97        O104   2.448       .  S
Cd97        O103   2.500       .  S
Cd97        O102   2.478       .  S
Cd97         O98   2.427       .  S
Cd97        O101   2.442       .  S
Cd97         O99   2.495       .  S
C100        O104   1.262       .  A
C100        C616   1.488       .  S
O105        C108   1.269       .  A
O105       Cd110   2.452       .  S
C106        O115   1.264       .  A
C106        O111   1.263       .  A
C106        C637   1.474       .  S
O107        C113   1.269       .  A
O107       Cd110   2.491       .  S
C108        O116   1.266       .  A
C108        C601   1.485       .  S
C109        O114   1.268       .  A
C109        O112   1.260       .  A
C109        C664   1.490       .  S
Cd110       O117   2.431       .  S
Cd110       O116   2.446       .  S
Cd110       O115   2.497       .  S
Cd110       O111   2.442       .  S
Cd110       O114   2.507       .  S
Cd110       O112   2.430       .  S
C113        O117   1.263       .  A
C113        C589   1.483       .  S
O118        C121   1.268       .  A
O118       Cd123   2.467       .  S
C119        O128   1.268       .  A
C119        O124   1.266       .  A
C119        C712   1.480       .  S
O120        C126   1.266       .  A
O120       Cd123   2.515       .  S
C121        O129   1.264       .  A
C121        C565   1.486       .  S
C122        O127   1.268       .  A
C122        O125   1.263       .  A
C122        C553   1.489       .  S
Cd123       O130   2.430       .  S
Cd123       O129   2.444       .  S
Cd123       O128   2.494       .  S
Cd123       O124   2.438       .  S
Cd123       O127   2.492       .  S
Cd123       O125   2.440       .  S
C126        O130   1.262       .  A
C126        C580   1.483       .  S
O131        C134   1.266       .  A
O131       Cd136   2.486       .  S
C132        O141   1.267       .  A
C132        O137   1.268       .  A
C132        C748   1.484       .  S
O133        C139   1.265       .  A
O133       Cd136   2.472       .  S
C134        O142   1.263       .  A
C134        C541   1.486       .  S
C135        O140   1.266       .  A
C135        O138   1.261       .  A
C135        C529   1.483       .  S
Cd136       O143   2.474       .  S
Cd136       O142   2.462       .  S
Cd136       O141   2.469       .  S
Cd136       O137   2.449       .  S
Cd136       O140   2.488       .  S
Cd136       O138   2.454       .  S
C139        O143   1.264       .  A
C139        C568   1.484       .  S
O144        C147   1.263       .  A
O144       Cd149   2.422       .  S
C145        O154   1.267       .  A
C145        O150   1.265       .  A
C145        C577   1.479       .  S
O146        C152   1.266       .  A
O146       Cd149   2.487       .  S
C147        O155   1.268       .  A
C147        C685   1.479       .  S
C148        O153   1.266       .  A
C148        O151   1.263       .  A
C148        C544   1.491       .  S
Cd149       O156   2.454       .  S
Cd149       O155   2.497       .  S
Cd149       O154   2.497       .  S
Cd149       O150   2.415       .  S
Cd149       O153   2.480       .  S
Cd149       O151   2.468       .  S
C152        O156   1.263       .  A
C152        C520   1.489       .  S
O157        C160   1.270       .  A
O157       Cd162   2.460   1_545  S
C158        O167   1.263       .  A
C158        O163   1.266       .  A
C158        C481   1.475   1_565  S
O159        C165   1.272       .  A
O159       Cd162   2.520       .  S
C160        O168   1.266   1_545  A
C160        C493   1.486       .  S
C161        O166   1.269       .  A
C161        O164   1.263       .  A
C161        C805   1.484       .  S
Cd162       O169   2.373       .  S
Cd162       O168   2.452       .  S
Cd162       O167   2.447       .  S
Cd162       O163   2.477       .  S
Cd162       O166   2.489       .  S
Cd162       O164   2.434       .  S
C165        O169   1.263       .  A
C165        C505   1.474       .  S
O170        C173   1.266       .  A
O170       Cd175   2.457   1_655  S
C171        O180   1.267   1_655  A
C171        O176   1.267       .  A
C171        C457   1.485       .  S
O172        C178   1.266       .  A
O172       Cd175   2.492       .  S
C173        O181   1.265       .  A
C173        C469   1.489       .  S
C174        O179   1.267       .  A
C174        O177   1.260       .  A
C174        C613   1.489       .  S
Cd175       O182   2.468       .  S
Cd175       O181   2.477   1_455  S
Cd175       O180   2.470       .  S
Cd175       O176   2.455   1_455  S
Cd175       O179   2.501       .  S
Cd175       O177   2.436       .  S
C178        O182   1.263       .  A
C178        C496   1.487       .  S
O183        C186   1.268       .  A
O183       Cd188   2.444       .  S
C184        O193   1.263       .  A
C184        O189   1.266       .  A
C184        C508   1.477   1_545  S
O185        C191   1.267       .  A
O185       Cd188   2.492       .  S
C186        O194   1.267       .  A
C186        C445   1.484       .  S
C187        O192   1.270       .  A
C187        O190   1.264       .  A
C187        C472   1.487       .  S
Cd188       O195   2.446       .  S
Cd188       O194   2.464       .  S
Cd188       O193   2.445       .  S
Cd188       O189   2.490       .  S
Cd188       O192   2.502       .  S
Cd188       O190   2.433       .  S
C191        O195   1.262       .  A
C191        C556   1.487   1_545  S
O196        C199   1.267       .  A
O196       Cd201   2.458       .  S
C197        O206   1.265       .  A
C197        O202   1.267   1_554  A
C197        C421   1.486   1_655  S
O198        C204   1.266   1_556  A
O198       Cd201   2.487       .  S
C199        O207   1.267       .  A
C199        C820   1.487       .  S
C200        O205   1.268       .  A
C200        O203   1.263       .  A
C200        C436   1.488       .  S
Cd201       O208   2.451   1_556  S
Cd201       O207   2.457       .  S
Cd201       O206   2.455   1_556  S
Cd201       O202   2.468       .  S
Cd201       O205   2.503       .  S
Cd201       O203   2.424       .  S
C204        O208   1.263       .  A
C204        C532   1.485       .  S
O209        C212   1.265       .  A
O209       Cd214   2.437   1_556  S
C210        O219   1.266       .  A
C210        O215   1.267       .  A
C210        C856   1.490       .  S
O211        C217   1.266       .  A
O211       Cd214   2.474       .  S
C212        O220   1.266   1_556  A
C212        C412   1.487       .  S
C213        O218   1.266       .  A
C213        O216   1.262       .  A
C213        C592   1.484       .  S
Cd214       O221   2.460       .  S
Cd214       O220   2.484       .  S
Cd214       O219   2.466       .  S
Cd214       O215   2.453       .  S
Cd214       O218   2.485       .  S
Cd214       O216   2.458       .  S
C217        O221   1.263       .  A
C217        C424   1.485       .  S
O222        C225   1.264       .  A
O222       Cd227   2.432   1_655  S
C223        O232   1.268       .  A
C223        O228   1.266       .  A
C223        C781   1.485       .  S
O224        C230   1.270       .  A
O224       Cd227   2.522       .  S
C225        O233   1.267       .  A
C225        C433   1.489       .  S
C226        O231   1.269   1_655  A
C226        O229   1.261       .  A
C226        C400   1.489       .  S
Cd227       O234   2.411       .  S
Cd227       O233   2.479   1_455  S
Cd227       O232   2.468       .  S
Cd227       O228   2.433       .  S
Cd227       O231   2.502       .  S
Cd227       O229   2.420   1_455  S
C230        O234   1.262       .  A
C230        C409   1.488       .  S
O235        C238   1.268       .  A
O235       Cd240   2.445       .  S
C236        O245   1.265       .  A
C236        O241   1.265       .  A
C236        C376   1.488       .  S
O237        C243   1.268       .  A
O237       Cd240   2.487       .  S
C238        O246   1.267       .  A
C238        C460   1.482       .  S
C239        O244   1.267       .  A
C239        O242   1.263       .  A
C239        C388   1.488       .  S
Cd240       O247   2.442       .  S
Cd240       O246   2.465       .  S
Cd240       O245   2.472       .  S
Cd240       O241   2.451       .  S
Cd240       O244   2.495       .  S
Cd240       O242   2.443       .  S
C243        O247   1.261       .  A
C243        C397   1.489       .  S
O248        C251   1.266       .  A
O248       Cd253   2.447       .  S
C249        O258   1.266       .  A
C249        O254   1.267       .  A
C249        C484   1.488       .  S
O250        C256   1.267       .  A
O250       Cd253   2.507       .  S
C251        O259   1.267       .  A
C251        C361   1.486       .  S
C252        O257   1.264       .  A
C252        O255   1.261       .  A
C252        C736   1.481       .  S
Cd253       O260   2.433       .  S
Cd253       O259   2.460       .  S
Cd253       O258   2.460       .  S
Cd253       O254   2.453       .  S
Cd253       O257   2.485       .  S
Cd253       O255   2.467       .  S
C256        O260   1.261       .  A
C256        C373   1.489       .  S
O261        C264   1.266       .  A
O261       Cd266   2.454       .  S
C262        O271   1.266       .  A
C262        O267   1.267       .  A
C262        C448   1.481       .  S
O263        C269   1.269       .  A
O263       Cd266   2.502       .  S
C264        O272   1.266       .  A
C264        C385   1.488       .  S
C265        O270   1.267       .  A
C265        O268   1.263       .  A
C265        C349   1.484       .  S
Cd266       O273   2.417       .  S
Cd266       O272   2.468       .  S
Cd266       O271   2.451       .  S
Cd266       O267   2.458       .  S
Cd266       O270   2.482       .  S
Cd266       O268   2.437       .  S
C269        O273   1.263       .  A
C269        C364   1.486       .  S
O274        C277   1.269       .  A
O274       Cd279   2.459       .  S
C275        O284   1.264       .  A
C275        O280   1.268       .  A
C275        C325   1.481       .  S
O276        C282   1.269       .  A
O276       Cd279   2.482       .  S
C277        O285   1.265       .  A
C277        C604   1.481       .  S
C278        O283   1.272       .  A
C278        O281   1.263       .  A
C278        C337   1.483       .  S
Cd279       O286   2.437       .  S
Cd279       O285   2.447       .  S
Cd279       O284   2.437       .  S
Cd279       O280   2.480       .  S
Cd279       O283   2.504       .  S
Cd279       O281   2.396       .  S
C282        O286   1.265       .  A
C282        C517   1.489       .  S
O287        C290   1.265       .  A
O287       Cd292   2.427       .  S
C288        O297   1.268       .  A
C288        O293   1.264       .  A
C288        C625   1.481       .  S
O289        C295   1.267       .  A
O289       Cd292   2.513       .  S
C290        O298   1.267       .  A
C290        C340   1.481       .  S
C291        O296   1.267       .  A
C291        O294   1.261       .  A
C291        C796   1.486       .  S
Cd292       O299   2.416       .  S
Cd292       O298   2.479       .  S
Cd292       O297   2.491       .  S
Cd292       O293   2.424       .  S
Cd292       O296   2.490       .  S
Cd292       O294   2.439       .  S
C295        O299   1.261       .  A
C295        C313   1.476       .  S
O300        C303   1.265       .  A
O300       Cd305   2.426       .  S
C301        O310   1.266       .  A
C301        O306   1.267       .  A
C301        C652   1.488       .  S
O302        C308   1.265       .  A
O302       Cd305   2.455       .  S
C303        O311   1.266       .  A
C303        C316   1.484       .  S
C304        O309   1.266       .  A
C304        O307   1.263       .  A
C304        C352   1.484       .  S
Cd305       O312   2.477       .  S
Cd305       O311   2.490       .  S
Cd305       O310   2.462       .  S
Cd305       O306   2.451       .  S
Cd305       O309   2.476       .  S
Cd305       O307   2.445       .  S
C308        O312   1.265       .  A
C308        C328   1.485       .  S
C313        C314   1.403       .  A
C313        C318   1.411       .  A
C314        C315   1.409       .  A
C314        H319   1.084       .  S
C315        C316   1.418       .  A
C315        C322   1.443       .  S
C316        C317   1.402       .  A
C317        C318   1.392       .  A
C317        H320   1.085       .  S
C318        C321   1.446       .  S
C321        N323   1.157       .  T
C322        N324   1.157       .  T
C325        C326   1.405       .  A
C325        C330   1.414       .  A
C326        C327   1.405       .  A
C326        H331   1.085       .  S
C327        C328   1.414       .  A
C327        C334   1.443       .  S
C328        C329   1.405       .  A
C329        C330   1.398       .  A
C329        H332   1.085       .  S
C330        C333   1.446       .  S
C333        N335   1.158       .  T
C334        N336   1.157       .  T
C337        C338   1.406       .  A
C337        C342   1.415       .  A
C338        C339   1.406       .  A
C338        H343   1.084       .  S
C339        C340   1.413       .  A
C339        C346   1.443       .  S
C340        C341   1.402       .  A
C341        C342   1.394       .  A
C341        H344   1.085       .  S
C342        C345   1.445       .  S
C345        N347   1.157       .  T
C346        N348   1.157       .  T
C349        C350   1.406       .  A
C349        C354   1.413       .  A
C350        C351   1.399       .  A
C350        H355   1.085       .  S
C351        C352   1.413       .  A
C351        C358   1.444       .  S
C352        C353   1.406       .  A
C353        C354   1.400       .  A
C353        H356   1.085       .  S
C354        C357   1.444       .  S
C357        N359   1.157       .  T
C358        N360   1.157       .  T
C361        C362   1.407       .  A
C361        C366   1.415       .  A
C362        C363   1.403       .  A
C362        H367   1.085       .  S
C363        C364   1.413       .  A
C363        C370   1.444       .  S
C364        C365   1.406       .  A
C365        C366   1.398       .  A
C365        H368   1.085       .  S
C366        C369   1.445       .  S
C369        N371   1.158       .  T
C370        N372   1.157       .  T
C373        C374   1.407       .  A
C373        C378   1.415       .  A
C374        C375   1.399       .  A
C374        H379   1.085       .  S
C375        C376   1.414       .  A
C375        C382   1.445       .  S
C376        C377   1.407       .  A
C377        C378   1.403       .  A
C377        H380   1.085       .  S
C378        C381   1.444       .  S
C381        N383   1.157       .  T
C382        N384   1.157       .  T
C385        C386   1.407       .  A
C385        C390   1.414       .  A
C386        C387   1.402       .  A
C386        H391   1.085       .  S
C387        C388   1.415       .  A
C387        C394   1.444       .  S
C388        C389   1.406       .  A
C389        C390   1.400       .  A
C389        H392   1.085       .  S
C390        C393   1.445       .  S
C393        N395   1.157       .  T
C394        N396   1.157       .  T
C397        C398   1.403       .  A
C397        C402   1.419       .  A
C398        C399   1.399       .  A
C398        H403   1.085       .  S
C399        C400   1.419       .  A
C399        C406   1.445       .  S
C400        C401   1.403       .  A
C401        C402   1.402       .  A
C401        H404   1.085       .  S
C402        C405   1.445       .  S
C405        N407   1.157       .  T
C406        N408   1.157       .  T
C409        C410   1.406       .  A
C409        C414   1.413       .  A
C410        C411   1.395       .  A
C410        H415   1.085       .  S
C411        C412   1.414       .  A
C411        C418   1.446       .  S
C412        C413   1.409       .  A
C413        C414   1.407       .  A
C413        H416   1.085       .  S
C414        C417   1.443       .  S
C417        N419   1.157       .  T
C418        N420   1.158       .  T
C421        C422   1.406       .  A
C421        C426   1.416       .  A
C422        C423   1.402       .  A
C422        H427   1.085       .  S
C423        C424   1.414       .  A
C423        C430   1.444       .  S
C424        C425   1.404       .  A
C425        C426   1.400       .  A
C425        H428   1.085       .  S
C426        C429   1.444   1_455  S
C429        N431   1.157       .  T
C430        N432   1.157       .  T
C433        C434   1.407       .  A
C433        C438   1.416       .  A
C434        C435   1.404       .  A
C434        H439   1.085       .  S
C435        C436   1.414       .  A
C435        C442   1.443       .  S
C436        C437   1.405       .  A
C437        C438   1.397       .  A
C437        H440   1.085       .  S
C438        C441   1.445       .  S
C441        N443   1.158       .  T
C442        N444   1.157       .  T
C445        C446   1.404       .  A
C445        C450   1.415       .  A
C446        C447   1.399       .  A
C446        H451   1.085       .  S
C447        C448   1.414       .  A
C447        C454   1.445       .  S
C448        C449   1.404       .  A
C449        C450   1.401       .  A
C449        H452   1.085       .  S
C450        C453   1.444       .  S
C453        N455   1.157       .  T
C454        N456   1.157       .  T
C457        C458   1.405       .  A
C457        C462   1.414       .  A
C458        C459   1.402       .  A
C458        H463   1.085       .  S
C459        C460   1.414       .  A
C459        C466   1.444       .  S
C460        C461   1.403       .  A
C461        C462   1.400       .  A
C461        H464   1.085       .  S
C462        C465   1.442   1_655  S
C465        N467   1.156       .  T
C466        N468   1.157       .  T
C469        C470   1.404       .  A
C469        C474   1.417       .  A
C470        C471   1.398       .  A
C470        H475   1.085       .  S
C471        C472   1.414       .  A
C471        C478   1.443       .  S
C472        C473   1.405       .  A
C473        C474   1.405       .  A
C473        H476   1.085       .  S
C474        C477   1.444       .  S
C477        N479   1.157       .  T
C478        N480   1.157       .  T
C481        C482   1.401       .  A
C481        C486   1.410       .  A
C482        C483   1.403       .  A
C482        H487   1.085   1_545  S
C483        C484   1.418       .  A
C483        C490   1.444       .  S
C484        C485   1.407       .  A
C485        C486   1.398       .  A
C485        H488   1.085       .  S
C486        C489   1.446       .  S
C489        N491   1.157       .  T
C490        N492   1.157       .  T
C493        C494   1.403   1_655  A
C493        C498   1.417   1_655  A
C494        C495   1.401       .  A
C494        H499   1.085       .  S
C495        C496   1.413       .  A
C495        C502   1.442       .  S
C496        C497   1.405       .  A
C497        C498   1.402       .  A
C497        H500   1.085       .  S
C498        C501   1.445   1_455  S
C501        N503   1.157   1_545  T
C502        N504   1.156       .  T
C505        C506   1.399       .  A
C505        C510   1.410       .  A
C506        C507   1.391   1_565  A
C506        H511   1.085   1_565  S
C507        C508   1.411   1_545  A
C507        C514   1.443       .  S
C508        C509   1.407       .  A
C509        C510   1.408       .  A
C509        H512   1.084       .  S
C510        C513   1.442       .  S
C513        N515   1.157       .  T
C514        N516   1.156       .  T
C517        C518   1.408       .  A
C517        C522   1.414       .  A
C518        C519   1.401       .  A
C518        H523   1.085       .  S
C519        C520   1.414       .  A
C519        C526   1.444       .  S
C520        C521   1.407       .  A
C521        C522   1.401       .  A
C521        H524   1.085       .  S
C522        C525   1.444       .  S
C525        N527   1.157       .  T
C526        N528   1.157       .  T
C529        C530   1.405       .  A
C529        C534   1.412       .  A
C530        C531   1.401       .  A
C530        H535   1.085       .  S
C531        C532   1.414       .  A
C531        C538   1.444   1_554  S
C532        C533   1.406       .  A
C533        C534   1.401       .  A
C533        H536   1.085       .  S
C534        C537   1.444       .  S
C537        N539   1.157       .  T
C538        N540   1.157       .  T
C541        C542   1.404       .  A
C541        C546   1.415       .  A
C542        C543   1.403       .  A
C542        H547   1.085       .  S
C543        C544   1.417       .  A
C543        C550   1.444       .  S
C544        C545   1.406       .  A
C545        C546   1.401       .  A
C545        H548   1.085       .  S
C546        C549   1.445       .  S
C549        N551   1.157       .  T
C550        N552   1.157       .  T
C553        C554   1.408       .  A
C553        C558   1.414       .  A
C554        C555   1.401       .  A
C554        H559   1.085       .  S
C555        C556   1.412       .  A
C555        C562   1.444   1_565  S
C556        C557   1.407       .  A
C557        C558   1.402       .  A
C557        H560   1.085       .  S
C558        C561   1.444       .  S
C561        N563   1.157       .  T
C562        N564   1.157       .  T
C565        C566   1.405       .  A
C565        C570   1.417       .  A
C566        C567   1.401       .  A
C566        H571   1.085       .  S
C567        C568   1.412       .  A
C567        C574   1.441       .  S
C568        C569   1.404       .  A
C569        C570   1.400       .  A
C569        H572   1.085       .  S
C570        C573   1.445       .  S
C573        N575   1.157       .  T
C574        N576   1.156       .  T
C577        C578   1.398       .  A
C577        C582   1.413       .  A
C578        C579   1.390       .  A
C578        H583   1.086       .  S
C579        C580   1.414       .  A
C579        C586   1.442       .  S
C580        C581   1.407       .  A
C581        C582   1.411       .  A
C581        H584   1.084       .  S
C582        C585   1.442       .  S
C585        N587   1.157       .  T
C586        N588   1.156       .  T
C589        C590   1.403       .  A
C589        C594   1.415       .  A
C590        C591   1.402       .  A
C590        H595   1.085       .  S
C591        C592   1.416       .  A
C591        C598   1.444       .  S
C592        C593   1.403       .  A
C593        C594   1.400       .  A
C593        H596   1.085       .  S
C594        C597   1.445       .  S
C597        N599   1.157       .  T
C598        N600   1.157       .  T
C601        C602   1.404       .  A
C601        C606   1.417       .  A
C602        C603   1.400       .  A
C602        H607   1.085       .  S
C603        C604   1.414       .  A
C603        C610   1.444       .  S
C604        C605   1.402       .  A
C605        C606   1.401       .  A
C605        H608   1.085       .  S
C606        C609   1.444       .  S
C609        N611   1.157       .  T
C610        N612   1.157       .  T
C613        C614   1.404       .  A
C613        C618   1.418       .  A
C614        C615   1.401       .  A
C614        H619   1.085       .  S
C615        C616   1.417       .  A
C615        C622   1.444       .  S
C616        C617   1.403       .  A
C617        C618   1.400       .  A
C617        H620   1.085       .  S
C618        C621   1.445       .  S
C621        N623   1.157       .  T
C622        N624   1.157       .  T
C625        C626   1.408       .  A
C625        C630   1.416       .  A
C626        C627   1.407       .  A
C626        H631   1.085       .  S
C627        C628   1.409       .  A
C627        C634   1.443       .  S
C628        C629   1.398       .  A
C629        C630   1.394       .  A
C629        H632   1.086       .  S
C630        C633   1.445       .  S
C633        N635   1.157       .  T
C634        N636   1.157       .  T
C637        C638   1.406       .  A
C637        C642   1.410       .  A
C638        C639   1.409       .  A
C638        H643   1.084       .  S
C639        C640   1.410       .  A
C639        C646   1.442       .  S
C640        C641   1.402       .  A
C641        C642   1.394       .  A
C641        H644   1.086       .  S
C642        C645   1.446       .  S
C645        N647   1.157       .  T
C646        N648   1.157       .  T
C649        C650   1.403       .  A
C649        C654   1.413       .  A
C650        C651   1.400       .  A
C650        H655   1.085       .  S
C651        C652   1.416       .  A
C651        C658   1.444       .  S
C652        C653   1.407       .  A
C653        C654   1.400       .  A
C653        H656   1.085       .  S
C654        C657   1.445       .  S
C657        N659   1.157       .  T
C658        N660   1.157       .  T
C661        C662   1.404       .  A
C661        C666   1.417       .  A
C662        C663   1.398       .  A
C662        H667   1.085       .  S
C663        C664   1.417       .  A
C663        C670   1.444       .  S
C664        C665   1.406       .  A
C665        C666   1.404       .  A
C665        H668   1.084       .  S
C666        C669   1.444       .  S
C669        N671   1.157       .  T
C670        N672   1.157       .  T
C673        C674   1.407       .  A
C673        C678   1.416       .  A
C674        C675   1.393       .  A
C674        H679   1.085       .  S
C675        C676   1.411       .  A
C675        C682   1.447       .  S
C676        C677   1.406       .  A
C677        C678   1.409       .  A
C677        H680   1.085       .  S
C678        C681   1.443       .  S
C681        N683   1.157       .  T
C682        N684   1.157       .  T
C685        C686   1.405       .  A
C685        C690   1.413       .  A
C686        C687   1.406       .  A
C686        H691   1.085       .  S
C687        C688   1.414       .  A
C687        C694   1.443       .  S
C688        C689   1.402       .  A
C689        C690   1.395       .  A
C689        H692   1.085       .  S
C690        C693   1.446       .  S
C693        N695   1.157       .  T
C694        N696   1.157       .  T
C697        C698   1.406       .  A
C697        C702   1.411       .  A
C698        C699   1.402       .  A
C698        H703   1.085       .  S
C699        C700   1.412       .  A
C699        C706   1.443       .  S
C700        C701   1.407       .  A
C701        C702   1.398       .  A
C701        H704   1.085       .  S
C702        C705   1.445       .  S
C705        N707   1.157       .  T
C706        N708   1.157       .  T
C709        C710   1.408   1_565  A
C709        C714   1.412       .  A
C710        C711   1.408       .  A
C710        H715   1.085       .  S
C711        C712   1.411   1_545  A
C711        C718   1.443       .  S
C712        C713   1.400       .  A
C713        C714   1.393       .  A
C713        H716   1.082       .  S
C714        C717   1.445       .  S
C717        N719   1.157       .  T
C718        N720   1.157       .  T
C721        C722   1.397       .  A
C721        C726   1.409       .  A
C722        C723   1.392       .  A
C722        H727   1.086       .  S
C723        C724   1.414       .  A
C723        C730   1.446       .  S
C724        C725   1.407       .  A
C725        C726   1.409       .  A
C725        H728   1.084       .  S
C726        C729   1.443       .  S
C729        N731   1.157       .  T
C730        N732   1.157       .  T
C733        C734   1.401       .  A
C733        C738   1.408       .  A
C734        C735   1.400       .  A
C734        H739   1.085   1_545  S
C735        C736   1.414       .  A
C735        C742   1.444       .  S
C736        C737   1.406       .  A
C737        C738   1.402       .  A
C737        H740   1.085       .  S
C738        C741   1.444       .  S
C741        N743   1.157       .  T
C742        N744   1.157       .  T
C745        C746   1.403       .  A
C745        C750   1.417   1_554  A
C746        C747   1.400       .  A
C746        H751   1.085       .  S
C747        C748   1.414       .  A
C747        C754   1.441       .  S
C748        C749   1.403       .  A
C749        C750   1.400   1_554  A
C749        H752   1.085       .  S
C750        C753   1.445       .  S
C753        N755   1.157       .  T
C754        N756   1.156       .  T
C757        C758   1.407       .  A
C757        C762   1.416       .  A
C758        C759   1.404       .  A
C758        H763   1.085       .  S
C759        C760   1.411       .  A
C759        C766   1.443       .  S
C760        C761   1.404       .  A
C761        C762   1.400       .  A
C761        H764   1.085       .  S
C762        C765   1.446   1_545  S
C765        N767   1.158       .  T
C766        N768   1.157       .  T
C769        C770   1.408       .  A
C769        C774   1.415       .  A
C770        C771   1.405       .  A
C770        H775   1.085       .  S
C771        C772   1.413       .  A
C771        C778   1.443       .  S
C772        C773   1.406       .  A
C773        C774   1.397       .  A
C773        H776   1.085       .  S
C774        C777   1.446   1_556  S
C777        N779   1.158       .  T
C778        N780   1.157       .  T
C781        C782   1.405       .  A
C781        C786   1.415       .  A
C782        C783   1.401       .  A
C782        H787   1.085       .  S
C783        C784   1.413       .  A
C783        C790   1.444       .  S
C784        C785   1.404       .  A
C785        C786   1.400       .  A
C785        H788   1.085       .  S
C786        C789   1.445       .  S
C789        N791   1.157       .  T
C790        N792   1.157       .  T
C793        C794   1.403       .  A
C793        C798   1.418       .  A
C794        C795   1.400       .  A
C794        H799   1.085       .  S
C795        C796   1.417       .  A
C795        C802   1.444       .  S
C796        C797   1.404       .  A
C797        C798   1.400       .  A
C797        H800   1.085       .  S
C798        C801   1.445       .  S
C801        N803   1.158       .  T
C802        N804   1.157       .  T
C805        C806   1.406   1_655  A
C805        C810   1.411       .  A
C806        C807   1.401       .  A
C806        H811   1.085       .  S
C807        C808   1.414       .  A
C807        C814   1.444       .  S
C808        C809   1.409   1_455  A
C809        C810   1.401       .  A
C809        H812   1.085       .  S
C810        C813   1.444       .  S
C813        N815   1.157       .  T
C814        N816   1.157       .  T
C817        C818   1.404       .  A
C817        C822   1.410   1_455  A
C818        C819   1.401       .  A
C818        H823   1.085       .  S
C819        C820   1.416   1_455  A
C819        C826   1.444       .  S
C820        C821   1.408       .  A
C821        C822   1.400       .  A
C821        H824   1.084       .  S
C822        C825   1.444       .  S
C825        N827   1.157       .  T
C826        N828   1.157       .  T
C829        C830   1.409       .  A
C829        C834   1.418       .  A
C830        C831   1.405       .  A
C830        H835   1.084       .  S
C831        C832   1.410       .  A
C831        C838   1.443       .  S
C832        C833   1.402       .  A
C833        C834   1.399       .  A
C833        H836   1.086       .  S
C834        C837   1.445       .  S
C837        N839   1.157       .  T
C838        N840   1.157       .  T
C841        C842   1.402       .  A
C841        C846   1.415       .  A
C842        C843   1.401       .  A
C842        H847   1.085       .  S
C843        C844   1.417       .  A
C843        C850   1.445       .  S
C844        C845   1.404       .  A
C845        C846   1.401       .  A
C845        H848   1.085       .  S
C846        C849   1.445       .  S
C849        N851   1.157       .  T
C850        N852   1.157   1_556  T
C853        C854   1.402   1_556  A
C853        C858   1.414       .  A
C854        C855   1.403       .  A
C854        H859   1.085       .  S
C855        C856   1.418       .  A
C855        C862   1.444       .  S
C856        C857   1.406   1_554  A
C857        C858   1.399       .  A
C857        H860   1.085       .  S
C858        C861   1.445       .  S
C861        N863   1.157       .  T
C862        N864   1.157       .  T
C865        C866   1.407       .  A
C865        C870   1.416       .  A
C866        C867   1.405       .  A
C866        H871   1.085       .  S
C867        C868   1.410       .  A
C867        C874   1.443       .  S
C868        C869   1.401       .  A
C869        C870   1.396       .  A
C869        H872   1.086       .  S
C870        C873   1.446       .  S
C873        N875   1.158       .  T
C874        N876   1.157       .  T
C877        C878   1.407       .  A
C877        C882   1.415       .  A
C878        C879   1.410       .  A
C878        H883   1.084       .  S
C879        C880   1.414       .  A
C879        C886   1.443       .  S
C880        C881   1.399       .  A
C881        C882   1.389       .  A
C881        H884   1.086       .  S
C882        C885   1.447       .  S
C885        N887   1.157       .  T
C886        N888   1.157       .  T
