geometry optimzed in LAMMPS
_audit_creation_date              2020-11-30 
_audit_creation_method            'lammps2cif' 
_symmetry_space_group_name_H-M    'P1' 
_symmetry_Int_Tables_number       1 
_symmetry_cell_setting            triclinic 
loop_ 
_symmetry_equiv_pos_as_xyz 
  x,y,z 
_cell_length_a                    50.21656734 
_cell_length_b                    50.198316370599855 
_cell_length_c                    50.19158148411085 
_cell_angle_alpha                 90.04433326601514 
_cell_angle_beta                  89.84835769598786 
_cell_angle_gamma                 89.92312784014867 
loop_ 
_atom_site_label 
_atom_site_type_symbol 
_atom_site_fract_x 
_atom_site_fract_y 
_atom_site_fract_z 
_atom_site_charge 
In1        In  0.25043587  0.62725820  0.50195137     1.36900
C2          C  0.29457561  0.64943308  0.48214095     0.77800
O3          O  0.26946844  0.62686101  0.54256418    -0.60600
O4          O  0.25787039  0.59007522  0.52565677    -0.51500
C5          C  0.20789697  0.65216881  0.52193043     0.70500
O6          O  0.22786258  0.66460229  0.51311311    -0.46400
C7          C  0.23002688  0.60390722  0.45891832     0.75200
O8          O  0.27560138  0.66286891  0.49173372    -0.58200
O9          O  0.24095589  0.59110465  0.47751048    -0.48300
O10         O  0.29077123  0.62467235  0.48285238    -0.54700
C11         C  0.26794570  0.60194679  0.54529304     0.85400
O12         O  0.20954514  0.62721921  0.51981720    -0.56500
O13         O  0.23009106  0.62879974  0.46218880    -0.59800
In14       In  0.74716013  0.87409061  0.50349025     1.36900
C15         C  0.76962759  0.89542412  0.46071762     0.77800
O16         O  0.78683664  0.87620455  0.52359280    -0.60600
O17         O  0.77125135  0.83798853  0.51490503    -0.51500
C18         C  0.72595469  0.89878258  0.54528360     0.70500
O19         O  0.73686806  0.91110294  0.52632088    -0.46400
C20         C  0.70453392  0.85186434  0.48150090     0.75200
O21         O  0.76010076  0.90933180  0.47940711    -0.58200
O22         O  0.72198471  0.83850987  0.49366933    -0.48300
O23         O  0.76696736  0.87065642  0.46371978    -0.54700
C24         C  0.79038247  0.85137787  0.52411308     0.85400
O25         O  0.72600703  0.87378506  0.54278122    -0.56500
O26         O  0.70858443  0.87664394  0.48132263    -0.59800
In27       In  0.00062418  0.75349497  0.62745405     1.36900
C28         C  0.01890909  0.79677407  0.65189912     0.77800
O29         O  0.04375563  0.74138972  0.62717218    -0.60600
O30         O  0.02240748  0.73945257  0.59085184    -0.51500
C31         C  0.98186109  0.70884155  0.64979104     0.70500
O32         O  0.98945555  0.72865425  0.66326362    -0.46400
C33         C  0.95751063  0.77477593  0.60486303     0.75200
O34         O  0.01086559  0.77659739  0.66456550    -0.58200
O35         O  0.97844798  0.76955153  0.59197794    -0.48300
O36         O  0.01769444  0.79461026  0.62692974    -0.54700
C37         C  0.04441759  0.73648464  0.60253485     0.85400
O38         O  0.98476143  0.71180232  0.62504167    -0.56500
O39         O  0.95842975  0.76841529  0.62910766    -0.59800
In40       In  0.50091211  0.74966548  0.87324748     1.36900
C41         C  0.52068037  0.79253258  0.84893234     0.77800
O42         O  0.46041066  0.76849101  0.87519482    -0.60600
O43         O  0.47747167  0.75550816  0.91123751    -0.51500
C44         C  0.48059839  0.70729269  0.84853155     0.70500
O45         O  0.48353302  0.72957073  0.83737330    -0.46400
C46         C  0.54554399  0.73165925  0.89531515     0.75200
O47         O  0.51355183  0.77201375  0.83640377    -0.58200
O48         O  0.52757558  0.74333243  0.90849265    -0.48300
O49         O  0.51774357  0.79098344  0.87380474    -0.54700
C50         C  0.45786235  0.76643581  0.90008645     0.85400
O51         O  0.48822259  0.70684321  0.87245513    -0.56500
O52         O  0.54040866  0.72888770  0.87088734    -0.59800
In53       In  0.62454476  0.00216454  0.75317169     1.36900
C54         C  0.60282967  0.95861510  0.77330331     0.77800
O55         O  0.62204318  0.98251827  0.71357345    -0.60600
O56         O  0.66032827  0.99197611  0.72834974    -0.51500
C57         C  0.60113853  0.04515119  0.73309373     0.70500
O58         O  0.58832374  0.02598324  0.74301126    -0.46400
C59         C  0.64689563  0.02264123  0.79639859     0.75200
O60         O  0.58904681  0.97771870  0.76456262    -0.58200
O61         O  0.66030908  0.01358268  0.77710551    -0.48300
O62         O  0.62765973  0.96173491  0.77149668    -0.54700
C63         C  0.64682451  0.98180565  0.70976078     0.85400
O64         O  0.62605793  0.04207476  0.73348537    -0.56500
O65         O  0.62208625  0.02092984  0.79336899    -0.59800
In66       In  0.75335027  0.62805810  0.99826301     1.36900
C67         C  0.77529583  0.60288011  0.95651069     0.77800
O68         O  0.71297419  0.62421861  0.97937832    -0.60600
O69         O  0.72870542  0.66295775  0.98481995    -0.51500
C70         C  0.73331612  0.60724492  0.04308119     0.70500
O71         O  0.74436640  0.59333006  0.02523638    -0.46400
C72         C  0.79573211  0.65362092  0.01734487     0.75200
O73         O  0.76483603  0.59066874  0.97585958    -0.58200
O74         O  0.77584032  0.66574955  0.00797032    -0.48300
O75         O  0.77401371  0.62785575  0.95858060    -0.54700
C76         C  0.70931685  0.64896573  0.97719831     0.85400
O77         O  0.73277263  0.63176144  0.03785969    -0.56500
O78         O  0.79354747  0.62862482  0.01744184    -0.59800
In79       In  0.87908739  0.49884559  0.74933673     1.36900
C80         C  0.85616350  0.48002131  0.70541894     0.77800
O81         O  0.87772379  0.53825008  0.72839472    -0.60600
O82         O  0.91487036  0.52477184  0.74281009    -0.51500
C83         C  0.85607744  0.51553489  0.79425938     0.70500
O84         O  0.84296157  0.50565273  0.77526533    -0.46400
C85         C  0.90360287  0.45558849  0.76737932     0.75200
O86         O  0.84313040  0.49121460  0.72382457    -0.58200
O87         O  0.91585640  0.47457120  0.75644951    -0.48300
O88         O  0.88080115  0.47813615  0.70979474    -0.54700
C89         C  0.90235125  0.54264715  0.73046698     0.85400
O90         O  0.88064302  0.51770777  0.78973078    -0.56500
O91         O  0.87872075  0.45876435  0.76870533    -0.59800
In92       In  0.62743860  0.50387207  0.24953144     1.36900
C93         C  0.65111224  0.52350170  0.20639587     0.77800
O94         O  0.63096350  0.46240132  0.23375997    -0.60600
O95         O  0.59262680  0.48030697  0.23464821    -0.51500
C96         C  0.64963187  0.48492710  0.29336192     0.70500
O97         O  0.66314993  0.49463592  0.27451263    -0.46400
C98         C  0.60305347  0.54504431  0.27196142     0.75200
O99         O  0.66394575  0.51548920  0.22641050    -0.58200
O100        O  0.59047280  0.52532586  0.26286622    -0.48300
O101        O  0.62616268  0.52221029  0.20885100    -0.54700
C102        C  0.60651855  0.46021387  0.22862731     0.85400
O103        O  0.62487760  0.48431493  0.28937958    -0.56500
O104        O  0.62786559  0.54419972  0.26833700    -0.59800
In105      In  0.50331711  0.25227561  0.12935511     1.36900
C106        C  0.54484407  0.22819229  0.10710122     0.77800
O107        O  0.52548944  0.29066503  0.12831026    -0.60600
O108        O  0.51471264  0.27508030  0.16613151    -0.51500
C109        C  0.46143479  0.27551050  0.10690310     0.70500
O110        O  0.48071329  0.26626923  0.09362650    -0.46400
C111        C  0.48181246  0.20918514  0.15003964     0.75200
O112        O  0.52778039  0.24083128  0.09369781    -0.58200
O113        O  0.49181726  0.22736059  0.16422772    -0.48300
O114        O  0.54097630  0.22869888  0.13190351    -0.54700
C115        C  0.52604872  0.29341733  0.15324972     0.85400
O116        O  0.46337864  0.27225996  0.13173657    -0.56500
O117        O  0.48185371  0.21375628  0.12535717    -0.59800
In118      In  0.37764963  0.00304690  0.25140516     1.36900
C119        C  0.35494890  0.98575247  0.20706293     0.77800
O120        O  0.37525079  0.04420244  0.23496170    -0.60600
O121        O  0.41352438  0.02700004  0.24030827    -0.51500
C122        C  0.35468204  0.02181830  0.29543122     0.70500
O123        O  0.34161493  0.01254158  0.27610522    -0.46400
C124        C  0.40102637  0.95875096  0.26801784     0.75200
O125        O  0.34166994  0.99303068  0.22716769    -0.58200
O126        O  0.41393524  0.97929866  0.26162251    -0.48300
O127        O  0.37981670  0.98717039  0.20986036    -0.54700
C128        C  0.40011774  0.04695344  0.23303633     0.85400
O129        O  0.37955239  0.02095349  0.29220291    -0.56500
O130        O  0.37608587  0.96121589  0.26678837    -0.59800
In131      In  0.49899191  0.75209203  0.37330550     1.36900
C132        C  0.51958052  0.70799001  0.35280957     0.77800
O133        O  0.54124982  0.76621096  0.37299249    -0.60600
O134        O  0.51960521  0.76848253  0.40922198    -0.51500
C135        C  0.48302263  0.79489419  0.34673061     0.70500
O136        O  0.49081772  0.77405306  0.33506297    -0.46400
C137        C  0.45533714  0.73450782  0.39745953     0.75200
O138        O  0.51069559  0.72668093  0.33860813    -0.58200
O139        O  0.47578376  0.74178577  0.40997428    -0.48300
O140        O  0.51697092  0.71142010  0.37756146    -0.54700
C141        C  0.54139345  0.77225601  0.39734804     0.85400
O142        O  0.48234446  0.79325084  0.37174041    -0.56500
O143        O  0.45753264  0.73559404  0.37245508    -0.59800
In144      In  0.75167652  0.12369559  0.00356842     1.36900
C145        C  0.70903319  0.14678106  0.02499635     0.77800
O146        O  0.73260336  0.12537035  0.96337007    -0.60600
O147        O  0.74190007  0.08751995  0.97927590    -0.51500
C148        C  0.79440293  0.14760313  0.98332664     0.70500
O149        O  0.77274979  0.15960342  0.98752481    -0.46400
C150        C  0.76864826  0.09925795  0.04699093     0.75200
O151        O  0.72975871  0.15949366  0.01876954    -0.58200
O152        O  0.76226861  0.08679122  0.02613230    -0.48300
O153        O  0.71024724  0.12219821  0.01996537    -0.54700
C154        C  0.73216692  0.10048585  0.96015187     0.85400
O155        O  0.79452652  0.12352135  0.99035821    -0.56500
O156        O  0.76717789  0.12427094  0.04521806    -0.59800
In157      In  0.00085731  0.24976228  0.87792820     1.36900
C158        C  0.95646472  0.23299385  0.90161737     0.77800
O159        O  0.98675550  0.29194117  0.87826380    -0.60600
O160        O  0.98993517  0.27247850  0.84098324    -0.51500
C161        C  0.04464475  0.26881880  0.90068197     0.70500
O162        O  0.02384535  0.26321137  0.91361992    -0.46400
C163        C  0.01762870  0.20472495  0.85591935     0.75200
O164        O  0.97696765  0.23955285  0.91447052    -0.58200
O165        O  0.01101554  0.22477614  0.84233739    -0.48300
O166        O  0.95875755  0.23500838  0.87670252    -0.54700
C167        C  0.98410442  0.29355574  0.85339437     0.85400
O168        O  0.04342022  0.26369522  0.87611811    -0.56500
O169        O  0.01609505  0.20797061  0.88078728    -0.59800
In170      In  0.25195768  0.87273678  0.00565532     1.36900
C171        C  0.23410068  0.89599290  0.96174641     0.77800
O172        O  0.29211367  0.87474790  0.98675204    -0.60600
O173        O  0.27678634  0.83661512  0.99579994    -0.51500
C174        C  0.27252652  0.89556896  0.04865928     0.70500
O175        O  0.26236729  0.90872462  0.02984630    -0.46400
C176        C  0.20773684  0.85065499  0.02444796     0.75200
O177        O  0.24135044  0.90909509  0.98190822    -0.58200
O178        O  0.22713243  0.83700549  0.01607500    -0.48300
O179        O  0.23547322  0.87105272  0.96435402    -0.54700
C180        C  0.29586025  0.84994862  0.98621729     0.85400
O181        O  0.27151131  0.87069770  0.04557039    -0.56500
O182        O  0.21118526  0.87547180  0.02351253    -0.59800
In183      In  0.12823908  0.99989652  0.75637770     1.36900
C184        C  0.10350168  0.04299787  0.77474373     0.77800
O185        O  0.12598413  0.98277749  0.79767391    -0.60600
O186        O  0.16377336  0.98482666  0.77889606    -0.51500
C187        C  0.10470711  0.95687975  0.73654306     0.70500
O188        O  0.09187209  0.97706876  0.74423344    -0.46400
C189        C  0.15252356  0.02216961  0.71472743     0.75200
O190        O  0.09116976  0.02309303  0.76576429    -0.58200
O191        O  0.16493529  0.01530904  0.73542580    -0.48300
O192        O  0.12845862  0.04038320  0.77526130    -0.54700
C193        C  0.15051477  0.97763075  0.79900208     0.85400
O194        O  0.12964476  0.95903929  0.73829365    -0.56500
O195        O  0.12809684  0.01658716  0.71506996    -0.59800
In196      In  0.87269641  0.99833774  0.25376112     1.36900
C197        C  0.89664824  0.95482169  0.23532518     0.77800
O198        O  0.87414502  0.97913754  0.29387558    -0.60600
O199        O  0.83623937  0.98712785  0.27703794    -0.51500
C200        C  0.89485659  0.04161403  0.27516966     0.70500
O201        O  0.90831102  0.02195569  0.26709396    -0.46400
C202        C  0.84932463  0.01615397  0.20981860     0.75200
O203        O  0.90927563  0.97566825  0.24135117    -0.58200
O204        O  0.83638692  0.00866080  0.22999530    -0.48300
O205        O  0.87175161  0.95668646  0.23793337    -0.54700
C206        C  0.84921796  0.97736204  0.29616112     0.85400
O207        O  0.87016599  0.03905351  0.27178207    -0.56500
O208        O  0.87426375  0.01515538  0.21245726    -0.59800
In209      In  0.00098858  0.74913183  0.12987385     1.36900
C210        C  0.98027399  0.79062500  0.15550195     0.77800
O211        O  0.04146988  0.76791525  0.13257254    -0.60600
O212        O  0.02532838  0.76059435  0.09424778    -0.51500
C213        C  0.02017890  0.70347296  0.14915633     0.70500
O214        O  0.01396743  0.72299408  0.16378172    -0.46400
C215        C  0.95658483  0.73356201  0.10573085     0.75200
O216        O  0.98783063  0.76985032  0.16745878    -0.58200
O217        O  0.97660330  0.74211589  0.09317909    -0.48300
O218        O  0.98437449  0.79042500  0.13072313    -0.54700
C219        C  0.04470434  0.76912215  0.10768096     0.85400
O220        O  0.01646209  0.70756750  0.12471264    -0.56500
O221        O  0.95970750  0.73227629  0.13061219    -0.59800
In222      In  0.12683139  0.49784224  0.25351492     1.36900
C223        C  0.10452633  0.54052422  0.23113837     0.77800
O224        O  0.12625769  0.51824150  0.29322350    -0.60600
O225        O  0.16361805  0.50654658  0.27734402    -0.51500
C226        C  0.10317023  0.45584946  0.27539269     0.70500
O227        O  0.09043664  0.47628345  0.26819405    -0.46400
C228        C  0.14942901  0.47644408  0.21068128     0.75200
O229        O  0.09111747  0.52123251  0.24004989    -0.58200
O230        O  0.16254754  0.48831201  0.22846930    -0.48300
O231        O  0.12925884  0.53785480  0.23410738    -0.54700
C232        C  0.15117311  0.51767774  0.29613667     0.85400
O233        O  0.12788436  0.45695149  0.27108999    -0.56500
O234        O  0.12463046  0.47595738  0.21464128    -0.59800
In235      In  0.37448627  0.49854564  0.75038675     1.36900
C236        C  0.35105592  0.48201759  0.79523828     0.77800
O237        O  0.37380848  0.45573856  0.73782814    -0.60600
O238        O  0.41044488  0.47641938  0.73522059    -0.51500
C239        C  0.34971889  0.51392489  0.70597142     0.70500
O240        O  0.33734596  0.50778790  0.72699496    -0.46400
C241        C  0.39880412  0.54266124  0.76733328     0.75200
O242        O  0.33815249  0.48973763  0.77516127    -0.58200
O243        O  0.41067816  0.52070088  0.76464726    -0.48300
O244        O  0.37597360  0.48252061  0.79219571    -0.54700
C245        C  0.39814893  0.45483729  0.73170683     0.85400
O246        O  0.37469958  0.51261256  0.70793710    -0.56500
O247        O  0.37438639  0.54186935  0.76165676    -0.59800
In248      In  0.25182900  0.37350601  0.00219316     1.36900
C249        C  0.20923381  0.34838786  0.98312749     0.77800
O250        O  0.23269830  0.37091411  0.04250809    -0.60600
O251        O  0.23846729  0.40921377  0.02582976    -0.51500
C252        C  0.29610126  0.35193747  0.02220484     0.70500
O253        O  0.27732413  0.33826923  0.01277981    -0.46400
C254        C  0.26929931  0.39773117  0.95827078     0.75200
O255        O  0.22984698  0.33618791  0.99065089    -0.58200
O256        O  0.26126614  0.41036860  0.97847792    -0.48300
O257        O  0.21083416  0.37337755  0.98482518    -0.54700
C258        C  0.22935307  0.39567929  0.04495025     0.85400
O259        O  0.29204326  0.37672085  0.02137467    -0.56500
O260        O  0.26923761  0.37280162  0.96104195    -0.59800
In261      In  0.24881783  0.12231756  0.50307256     1.36900
C262        C  0.23282637  0.10087439  0.54878461     0.77800
O263        O  0.29131588  0.12150429  0.51623725    -0.60600
O264        O  0.27161913  0.15889298  0.51487438    -0.51500
C265        C  0.26579122  0.09786355  0.45902688     0.70500
O266        O  0.25869089  0.08518518  0.47954849    -0.46400
C267        C  0.20529961  0.14526116  0.48374313     0.75200
O268        O  0.23968299  0.08702308  0.52892561    -0.58200
O269        O  0.22632289  0.15801296  0.48864048    -0.48300
O270        O  0.23352271  0.12565323  0.54491411    -0.54700
C271        C  0.29284716  0.14633065  0.51955930     0.85400
O272        O  0.26452743  0.12281532  0.46135337    -0.56500
O273        O  0.20620990  0.12084332  0.48952340    -0.59800
In274      In  0.99955862  0.24856707  0.37864568     1.36900
C275        C  0.97806514  0.20431782  0.35884967     0.77800
O276        O  0.03764203  0.22535839  0.37775420    -0.60600
O277        O  0.02489437  0.24124076  0.41484567    -0.51500
C278        C  0.02070026  0.29020134  0.35339552     0.70500
O279        O  0.01027876  0.27087998  0.34119783    -0.46400
C280        C  0.95710182  0.27170171  0.40033865     0.75200
O281        O  0.98875884  0.22191714  0.34438298    -0.58200
O282        O  0.97490791  0.26056957  0.41412194    -0.48300
O283        O  0.97807229  0.20985210  0.38332876    -0.54700
C284        C  0.04185791  0.22742456  0.40240282     0.85400
O285        O  0.02049518  0.28781819  0.37839107    -0.56500
O286        O  0.96071662  0.27016710  0.37553102    -0.59800
In287      In  0.74897687  0.37853473  0.49956165     1.36900
C288        C  0.77276442  0.40007341  0.54153976     0.77800
O289        O  0.70941593  0.38181112  0.52005483    -0.60600
O290        O  0.72296380  0.34337344  0.50938300    -0.51500
C291        C  0.72796204  0.40299334  0.45786840     0.70500
O292        O  0.73383277  0.41521040  0.47900602    -0.46400
C293        C  0.79103330  0.35453082  0.47782586     0.75200
O294        O  0.76580442  0.41357507  0.52155042    -0.58200
O295        O  0.77171245  0.34169315  0.48756095    -0.48300
O296        O  0.76698843  0.37567173  0.54021915    -0.54700
C297        C  0.70475076  0.35718039  0.51997112     0.85400
O298        O  0.73322991  0.37846150  0.45800206    -0.56500
O299        O  0.78883524  0.37948873  0.47959975    -0.59800
In300      In  0.49916066  0.24929362  0.62283251     1.36900
C301        C  0.47666684  0.29146191  0.64557607     0.77800
O302        O  0.53713869  0.27273579  0.62402358    -0.60600
O303        O  0.52367772  0.25867014  0.58656806    -0.51500
C304        C  0.52077120  0.20816407  0.64823944     0.70500
O305        O  0.50674111  0.22547576  0.65980953    -0.46400
C306        C  0.45694209  0.22828534  0.59904011     0.75200
O307        O  0.48919793  0.27406676  0.65860922    -0.58200
O308        O  0.47614800  0.23814393  0.58622307    -0.48300
O309        O  0.47632990  0.28764406  0.62075918    -0.54700
C310        C  0.54095829  0.27173497  0.59920590     0.85400
O311        O  0.52308854  0.21155575  0.62346547    -0.56500
O312        O  0.45989961  0.22821267  0.62394072    -0.59800
C313        C  0.58600747  0.30878065  0.55047481    -0.22200
C314        C  0.61044698  0.30710027  0.56373609     0.09800
C315        C  0.61195597  0.29392577  0.58847369     0.10200
C316        C  0.58883658  0.28276505  0.59951697    -0.17100
C317        C  0.56424400  0.28436943  0.58633545    -0.27500
C318        C  0.56274934  0.29786594  0.56154904     0.18500
C319        C  0.63412251  0.31998602  0.55176692     0.12500
C320        C  0.63800713  0.29154256  0.60309852    -0.11900
H321        H  0.59002526  0.27246144  0.61843780     0.12800
C322        C  0.53706721  0.30244795  0.54670203    -0.22700
H323        H  0.58498113  0.31921936  0.53162766     0.08400
C324        C  0.65042992  0.30652256  0.53327180     0.04700
C325        C  0.67330420  0.31917686  0.52336918    -0.20000
C326        C  0.67999565  0.34526716  0.53108232    -0.12200
C327        C  0.66303254  0.35901694  0.54916590     0.13400
C328        C  0.64045389  0.34603231  0.55940376    -0.22700
C329        C  0.64363536  0.27880999  0.52402888    -0.05700
H330        H  0.68592319  0.30863757  0.50930885     0.15000
C331        C  0.66858067  0.38711728  0.55820093    -0.15900
H332        H  0.62760980  0.35620453  0.57356408     0.09300
H333        H  0.53781578  0.29185839  0.52728898     0.07200
H334        H  0.53455710  0.32409724  0.54289935     0.08400
H335        H  0.51912949  0.29593848  0.55770100     0.07400
H336        H  0.64580462  0.31168609  0.60778940     0.02300
H337        H  0.65271579  0.28078090  0.59050031     0.02800
H338        H  0.63574864  0.28043653  0.62209164     0.06300
H339        H  0.65849663  0.27108315  0.50951586     0.05200
H340        H  0.62385397  0.27892802  0.51420632    -0.00500
H341        H  0.64305498  0.26505485  0.54132443     0.01000
H342        H  0.66784992  0.40086395  0.54089942     0.04600
H343        H  0.68845795  0.38813204  0.56779625     0.06600
H344        H  0.65361062  0.39419737  0.57291832     0.07400
C345        C  0.83787733  0.30696130  0.44116076    -0.22200
C346        C  0.86252481  0.31886104  0.44647548     0.09800
C347        C  0.86347654  0.34263409  0.46141913     0.10200
C348        C  0.83971871  0.35370406  0.47117833    -0.17100
C349        C  0.81494733  0.34176663  0.46612538    -0.27500
C350        C  0.81397459  0.31836342  0.45030016     0.18500
C351        C  0.88699843  0.30674494  0.43516941     0.12500
C352        C  0.88957033  0.35619198  0.46726071    -0.11900
H353        H  0.84052295  0.37173084  0.48307163     0.12800
C354        C  0.78836333  0.30562708  0.44125089    -0.22700
H355        H  0.83725234  0.28905245  0.42909602     0.08400
C356        C  0.89915487  0.28430517  0.44689060     0.04700
C357        C  0.92227385  0.27358840  0.43526674    -0.20000
C358        C  0.93364182  0.28495620  0.41233856    -0.12200
C359        C  0.92193345  0.30815753  0.40124898     0.13400
C360        C  0.89841059  0.31829605  0.41247815    -0.22700
C361        C  0.88786021  0.27186528  0.47175709    -0.05700
H362        H  0.93132365  0.25599150  0.44393509     0.15000
C363        C  0.93411304  0.32367170  0.37854694    -0.15900
H364        H  0.88921015  0.33583802  0.40385288     0.09300
H365        H  0.78672998  0.28531995  0.44983887     0.07200
H366        H  0.78845711  0.30400349  0.41917786     0.08400
H367        H  0.77036832  0.31714235  0.44667571     0.07400
H368        H  0.89929583  0.36231614  0.44836030     0.02300
H369        H  0.90290706  0.34231782  0.47813568     0.02800
H370        H  0.88677444  0.37430622  0.47968652     0.06300
H371        H  0.89996150  0.25460496  0.47847289     0.05200
H372        H  0.86729935  0.26475104  0.46796107    -0.00500
H373        H  0.88745795  0.28682305  0.48806402     0.01000
H374        H  0.92100703  0.32240114  0.36081416     0.04600
H375        H  0.95436115  0.31696063  0.37300928     0.06600
H376        H  0.93601745  0.34491829  0.38443783     0.07400
C377        C  0.36541331  0.16358066  0.53195158    -0.22200
C378        C  0.36273784  0.18320039  0.55159590     0.09800
C379        C  0.33717320  0.19160295  0.55970112     0.10200
C380        C  0.31468388  0.17972766  0.54822479    -0.17100
C381        C  0.31726901  0.15956567  0.52897577    -0.27500
C382        C  0.34300601  0.15185032  0.52021901     0.18500
C383        C  0.38704825  0.19448309  0.56362796     0.12500
C384        C  0.33371094  0.21266873  0.58082666    -0.11900
H385        H  0.29498694  0.18567062  0.55486852     0.12800
C386        C  0.34778682  0.13216003  0.49798596    -0.22700
H387        H  0.38517317  0.15754686  0.52557580     0.08400
C388        C  0.39971374  0.18186220  0.58522298     0.04700
C389        C  0.42245030  0.19352908  0.59636220    -0.20000
C390        C  0.43292941  0.21738213  0.58621342    -0.12200
C391        C  0.41995877  0.23019270  0.56465633     0.13400
C392        C  0.39731368  0.21832700  0.55347689    -0.22700
C393        C  0.38915630  0.15613915  0.59648601    -0.05700
H394        H  0.43228863  0.18381791  0.61294766     0.15000
C395        C  0.42835005  0.25686165  0.55363491    -0.15900
H396        H  0.38722166  0.22802889  0.53704655     0.09300
H397        H  0.35782364  0.11417104  0.50602253     0.07200
H398        H  0.36088722  0.14135419  0.48269577     0.08400
H399        H  0.32940571  0.12601980  0.48756846     0.07400
H400        H  0.34311698  0.23153104  0.57416387     0.02300
H401        H  0.34323999  0.20602759  0.59962389     0.02800
H402        H  0.31235912  0.21673006  0.58502330     0.06300
H403        H  0.40133364  0.14900661  0.61349535     0.05200
H404        H  0.38939955  0.14049515  0.58084142    -0.00500
H405        H  0.36840999  0.15904267  0.60362433     0.01000
H406        H  0.43455293  0.25450699  0.53251331     0.04600
H407        H  0.44476168  0.26635303  0.56474691     0.06600
H408        H  0.41122397  0.27086212  0.55453384     0.07400
C409        C  0.15955137  0.18608079  0.43950551    -0.22200
C410        C  0.13494699  0.18175761  0.45192322     0.09800
C411        C  0.13342520  0.16521472  0.47457217     0.10200
C412        C  0.15676217  0.15342364  0.48444499    -0.17100
C413        C  0.18149830  0.15788774  0.47215861    -0.27500
C414        C  0.18287331  0.17415211  0.44914017     0.18500
C415        C  0.11082832  0.19361570  0.43992557     0.12500
C416        C  0.10717984  0.16000035  0.48818932    -0.11900
H417        H  0.15575281  0.14083546  0.50197130     0.12800
C418        C  0.20813867  0.17840364  0.43338123    -0.22700
H419        H  0.16044755  0.19839845  0.42178969     0.08400
C420        C  0.10189730  0.21932378  0.44692579     0.04700
C421        C  0.07897450  0.22965728  0.43470376    -0.20000
C422        C  0.06492405  0.21484839  0.41559622    -0.12200
C423        C  0.07359373  0.18871676  0.40918320     0.13400
C424        C  0.09672456  0.17868765  0.42112302    -0.22700
C425        C  0.11669309  0.23582750  0.46710240    -0.05700
H426        H  0.07228199  0.24959268  0.43969915     0.15000
C427        C  0.05850317  0.17027313  0.39090182    -0.15900
H428        H  0.10356063  0.15877453  0.41612823     0.09300
H429        H  0.21325949  0.19991084  0.43334481     0.07200
H430        H  0.20500339  0.17178940  0.41250367     0.08400
H431        H  0.22540545  0.16713690  0.44109055     0.07400
H432        H  0.09324991  0.15033680  0.47403468     0.02300
H433        H  0.09837727  0.17906966  0.49516749     0.02800
H434        H  0.10951868  0.14670135  0.50570668     0.06300
H435        H  0.10702972  0.25548943  0.47032084     0.05200
H436        H  0.13738385  0.23932450  0.46009723    -0.00500
H437        H  0.11727472  0.22522466  0.48648766     0.01000
H438        H  0.07059506  0.16622766  0.37278594     0.04600
H439        H  0.03882589  0.17804862  0.38482878     0.06600
H440        H  0.05470987  0.15112457  0.40131374     0.07400
C441        C  0.44778521  0.40100188  0.71084468    -0.22200
C442        C  0.43179397  0.38562617  0.69400268     0.09800
C443        C  0.40489061  0.39255583  0.69022576     0.10200
C444        C  0.39458074  0.41502685  0.70323357    -0.17100
C445        C  0.41051278  0.43073427  0.72001601    -0.27500
C446        C  0.43745836  0.42330016  0.72427033     0.18500
C447        C  0.44331528  0.36167386  0.68130962     0.12500
C448        C  0.38713042  0.37628558  0.67237185    -0.11900
H449        H  0.37399346  0.42060153  0.69992451     0.12800
C450        C  0.45570024  0.43729915  0.74355077    -0.22700
H451        H  0.46833588  0.39518775  0.71398287     0.08400
C452        C  0.45605055  0.36292138  0.65630122     0.04700
C453        C  0.46613502  0.33946639  0.64489058    -0.20000
C454        C  0.46404320  0.31489792  0.65810783    -0.12200
C455        C  0.45066700  0.31365158  0.68299655     0.13400
C456        C  0.44080415  0.33719335  0.69438745    -0.22700
C457        C  0.45921111  0.38902389  0.64186713    -0.05700
H458        H  0.47625769  0.34041652  0.62580340     0.15000
C459        C  0.44525231  0.28801120  0.69769852    -0.15900
H460        H  0.43057103  0.33640016  0.71342300     0.09300
H461        H  0.47243409  0.44658296  0.73245103     0.07200
H462        H  0.46397366  0.42253482  0.75778251     0.08400
H463        H  0.44568632  0.45272584  0.75569481     0.07400
H464        H  0.38583609  0.35556172  0.67996528     0.02300
H465        H  0.39537093  0.37597638  0.65183324     0.02800
H466        H  0.36663657  0.38458353  0.67148224     0.06300
H467        H  0.46964990  0.38646690  0.62249385     0.05200
H468        H  0.47100246  0.40300103  0.65426581    -0.00500
H469        H  0.43935205  0.39789182  0.63791726     0.01000
H470        H  0.45609229  0.28809216  0.71694879     0.04600
H471        H  0.45087858  0.26994018  0.68640419     0.06600
H472        H  0.42357446  0.28638216  0.70182889     0.07400
C473        C  0.30187367  0.46972133  0.85208309    -0.22200
C474        C  0.31442745  0.44861057  0.86529259     0.09800
C475        C  0.33926742  0.43925273  0.85605562     0.10200
C476        C  0.35091357  0.45107782  0.83355002    -0.17100
C477        C  0.33828110  0.47203377  0.81995114    -0.27500
C478        C  0.31366086  0.48194034  0.82982019     0.18500
C479        C  0.30142144  0.43666301  0.88896541     0.12500
C480        C  0.35345959  0.41678891  0.86999569    -0.11900
H481        H  0.36977881  0.44350606  0.82619673     0.12800
C482        C  0.29967302  0.50595046  0.81841401    -0.22700
H483        H  0.28295652  0.47705147  0.85953886     0.08400
C484        C  0.30273278  0.44886494  0.91423670     0.04700
C485        C  0.29136072  0.43598068  0.93631565    -0.20000
C486        C  0.27866593  0.41117428  0.93370861    -0.12200
C487        C  0.27620066  0.39966016  0.90798189     0.13400
C488        C  0.28806412  0.41237917  0.88608821    -0.22700
C489        C  0.31674373  0.47511021  0.91798172    -0.05700
H490        H  0.29305739  0.44501201  0.95587103     0.15000
C491        C  0.26049329  0.37468103  0.90235358    -0.15900
H492        H  0.28667838  0.40340025  0.86648735     0.09300
H493        H  0.29543987  0.52040194  0.83465682     0.07200
H494        H  0.28052221  0.49973078  0.80934448     0.08400
H495        H  0.31157769  0.51681529  0.80340711     0.07400
H496        H  0.34104943  0.39851952  0.86940730     0.02300
H497        H  0.35723058  0.42232830  0.89107177     0.02800
H498        H  0.37289120  0.41214663  0.86043296     0.06300
H499        H  0.31628307  0.48170891  0.93910655     0.05200
H500        H  0.30691636  0.49068990  0.90577558    -0.00500
H501        H  0.33788795  0.47321632  0.91172776     0.01000
H502        H  0.24619747  0.37859956  0.88596281     0.04600
H503        H  0.24840781  0.36773427  0.91940984     0.06600
H504        H  0.27424392  0.35852065  0.89602910     0.07400
C505        C  0.19760478  0.44156628  0.16337213    -0.22200
C506        C  0.18400779  0.44424279  0.13920888     0.09800
C507        C  0.15912804  0.45724355  0.13862244     0.10200
C508        C  0.14829808  0.46725867  0.16238820    -0.17100
C509        C  0.16182054  0.46462257  0.18671272    -0.27500
C510        C  0.18670350  0.45122773  0.18727131     0.18500
C511        C  0.19563335  0.43222420  0.11490444     0.12500
C512        C  0.14420004  0.46074400  0.11286096    -0.11900
H513        H  0.12928425  0.47752955  0.16191768     0.12800
C514        C  0.20181615  0.44543509  0.21256110    -0.22700
H515        H  0.21656084  0.43118993  0.16367163     0.08400
C516        C  0.21474789  0.44575009  0.09943993     0.04700
C517        C  0.22506437  0.43342844  0.07650485    -0.20000
C518        C  0.21640792  0.40802463  0.06848860    -0.12200
C519        C  0.19619806  0.39508154  0.08348362     0.13400
C520        C  0.18670910  0.40707212  0.10690758    -0.22700
C521        C  0.22408003  0.47319823  0.10711512    -0.05700
H522        H  0.24022601  0.44358609  0.06494483     0.15000
C523        C  0.18292255  0.36951372  0.07495883    -0.15900
H524        H  0.17154552  0.39710535  0.11862200     0.09300
H525        H  0.22093352  0.45651703  0.21241042     0.07200
H526        H  0.20618982  0.42377168  0.21368146     0.08400
H527        H  0.19073635  0.45048833  0.23093552     0.07400
H528        H  0.13948287  0.44097020  0.10417304     0.02300
H529        H  0.15658532  0.47217439  0.09853158     0.02800
H530        H  0.12519114  0.47169607  0.11585260     0.06300
H531        H  0.23898177  0.48107319  0.09276086     0.05200
H532        H  0.23338739  0.47261071  0.12714264    -0.00500
H533        H  0.20687650  0.48710969  0.10755502     0.01000
H534        H  0.18818142  0.35332274  0.08905470     0.04600
H535        H  0.18800153  0.36325048  0.05444736     0.06600
H536        H  0.16097191  0.37227487  0.07525463     0.07400
C537        C  0.03779288  0.34460902  0.30286210    -0.22200
C538        C  0.05565070  0.35998987  0.31771947     0.09800
C539        C  0.06228518  0.35220573  0.34382514     0.10200
C540        C  0.05048197  0.32941678  0.35475129    -0.17100
C541        C  0.03253055  0.31380299  0.34003305    -0.27500
C542        C  0.02618681  0.32148434  0.31358711     0.18500
C543        C  0.06720977  0.38435631  0.30583098     0.12500
C544        C  0.08214797  0.36777174  0.36002198    -0.11900
H545        H  0.05557332  0.32363464  0.37488985     0.12800
C546        C  0.00687707  0.30592850  0.29673541    -0.22700
H547        H  0.03288513  0.35084524  0.28266578     0.08400
C548        C  0.09002042  0.38322858  0.28948067     0.04700
C549        C  0.10127034  0.40699625  0.28011367    -0.20000
C550        C  0.09041078  0.43192180  0.28690222    -0.12200
C551        C  0.06784534  0.43299767  0.30394194     0.13400
C552        C  0.05623692  0.40911222  0.31264338    -0.22700
C553        C  0.10265464  0.35696941  0.28222232    -0.05700
H554        H  0.11863384  0.40607908  0.26722173     0.15000
C555        C  0.05629291  0.45858334  0.31474865    -0.15900
H556        H  0.03899274  0.40979709  0.32579621     0.09300
H557        H  0.01476041  0.28556838  0.29307362     0.07200
H558        H  0.00366277  0.31543241  0.27704614     0.08400
H559        H  0.98728670  0.30470895  0.30698989     0.07400
H560        H  0.07496668  0.38849708  0.36291973     0.02300
H561        H  0.10161395  0.36817848  0.34948106     0.02800
H562        H  0.08530381  0.35879277  0.37997578     0.06300
H563        H  0.12050539  0.35966794  0.26939917     0.05200
H564        H  0.08814537  0.34447461  0.27121746    -0.00500
H565        H  0.10889985  0.34637167  0.30058644     0.01000
H566        H  0.03587867  0.46145391  0.30682239     0.04600
H567        H  0.06836733  0.47638805  0.31010548     0.06600
H568        H  0.05517388  0.45739358  0.33682514     0.07400
C569        C  0.09368525  0.60732458  0.19614845    -0.22200
C570        C  0.06587728  0.60793140  0.19464167     0.09800
C571        C  0.05086535  0.58641635  0.20450813     0.10200
C572        C  0.06409445  0.56482647  0.21626419    -0.17100
C573        C  0.09203699  0.56409822  0.21826118    -0.27500
C574        C  0.10705127  0.58570580  0.20780053     0.18500
C575        C  0.05301022  0.63181607  0.18325482     0.12500
C576        C  0.02093412  0.58628551  0.20253149    -0.11900
H577        H  0.05235934  0.54831892  0.22401916     0.12800
C578        C  0.13705727  0.58649149  0.20873588    -0.22700
H579        H  0.10485317  0.62393175  0.18840674     0.08400
C580        C  0.04594822  0.65360128  0.19948467     0.04700
C581        C  0.03499404  0.67639961  0.18773186    -0.20000
C582        C  0.03107924  0.67814723  0.16005239    -0.12200
C583        C  0.03798262  0.65593426  0.14381915     0.13400
C584        C  0.04889076  0.63307111  0.15572707    -0.22700
C585        C  0.05037066  0.65287337  0.22916619    -0.05700
H586        H  0.02971570  0.69325356  0.20044098     0.15000
C587        C  0.03417201  0.65590800  0.11402658    -0.15900
H588        H  0.05449108  0.61618095  0.14356146     0.09300
H589        H  0.14390930  0.58604586  0.22971236     0.07200
H590        H  0.14513698  0.60491772  0.19949187     0.08400
H591        H  0.14544302  0.56928570  0.19758366     0.07400
H592        H  0.01493230  0.58747373  0.18132047     0.02300
H593        H  0.01249050  0.60356424  0.21344290     0.02800
H594        H  0.01222413  0.56782700  0.21116832     0.06300
H595        H  0.04378291  0.67163120  0.23894816     0.05200
H596        H  0.07187168  0.65005629  0.23339571    -0.00500
H597        H  0.03899810  0.63618362  0.23811739     0.01000
H598        H  0.04631971  0.67191097  0.10482205     0.04600
H599        H  0.01279338  0.65889535  0.10923474     0.06600
H600        H  0.04046803  0.63674132  0.10488290    -0.07000
C601        C  0.94833795  0.13450443  0.35176413    -0.22200
C602        C  0.94541635  0.13291706  0.32409521     0.09800
C603        C  0.95324079  0.15449327  0.30797885     0.10200
C604        C  0.96383344  0.17738712  0.31993209    -0.17100
C605        C  0.96662363  0.17935537  0.34774886    -0.27500
C606        C  0.95878606  0.15744833  0.36390257     0.18500
C607        C  0.93275243  0.10906699  0.31237260     0.12500
C608        C  0.95040543  0.15332158  0.27811997    -0.11900
H609        H  0.96973052  0.19387704  0.30744127     0.12800
C610        C  0.96137371  0.15779270  0.39382373    -0.22700
H611        H  0.94210690  0.11777877  0.36389217     0.08400
C612        C  0.94738558  0.08583637  0.30648830     0.04700
C613        C  0.93446246  0.06424431  0.29434159    -0.20000
C614        C  0.90719665  0.06533108  0.28791738    -0.12200
C615        C  0.89260479  0.08883637  0.29401594     0.13400
C616        C  0.90563309  0.11028302  0.30625705    -0.22700
C617        C  0.97664834  0.08402266  0.31275733    -0.05700
H618        H  0.94580864  0.04639164  0.28986205     0.15000
C619        C  0.86348942  0.09196394  0.28744011    -0.15900
H620        H  0.89469779  0.12834619  0.31085211     0.09300
H621        H  0.98249051  0.16096604  0.39946808     0.07200
H622        H  0.95482394  0.13867504  0.40290346     0.08400
H623        H  0.94872066  0.17381249  0.40234460     0.07400
H624        H  0.92910877  0.15064132  0.27273493     0.02300
H625        H  0.96213438  0.13630055  0.27013816     0.02800
H626        H  0.95761292  0.17178746  0.26844122     0.06300
H627        H  0.98517459  0.06446592  0.30671924     0.05200
H628        H  0.97974838  0.08648490  0.33451281    -0.00500
H629        H  0.98759603  0.09989908  0.30198827     0.01000
H630        H  0.85156838  0.07701633  0.29859598     0.04600
H631        H  0.86044843  0.08944231  0.26567035     0.06600
H632        H  0.85582507  0.11193976  0.29300118     0.07400
C633        C  0.93800371  0.83433364  0.20130666    -0.22200
C634        C  0.94500572  0.85968315  0.19201430     0.09800
C635        C  0.96360058  0.86221650  0.17112384     0.10200
C636        C  0.97486203  0.83923188  0.15990265    -0.17100
C637        C  0.96788889  0.81371489  0.16901477    -0.27500
C638        C  0.94883353  0.81120412  0.18980180     0.18500
C639        C  0.93204364  0.88342404  0.20376912     0.12500
C640        C  0.97126885  0.88920202  0.16048360    -0.11900
H641        H  0.98922017  0.84120000  0.14389042     0.12800
C642        C  0.93815954  0.78483373  0.19946727    -0.22700
H643        H  0.92335358  0.83258790  0.21712718     0.08400
C644        C  0.90706778  0.89240389  0.19470647     0.04700
C645        C  0.89606943  0.91565649  0.20565514    -0.20000
C646        C  0.90951703  0.93023303  0.22537806    -0.12200
C647        C  0.93439979  0.92077926  0.23487352     0.13400
C648        C  0.94540536  0.89761763  0.22366284    -0.22700
C649        C  0.89227564  0.87767360  0.17318542    -0.05700
H650        H  0.87701099  0.92275642  0.19842436     0.15000
C651        C  0.94960569  0.93359079  0.25736645    -0.15900
H652        H  0.96451618  0.89040975  0.23064122     0.09300
H653        H  0.91609767  0.78487953  0.19792853     0.07200
H654        H  0.94372362  0.78191028  0.22065830     0.08400
H655        H  0.94524397  0.76753130  0.18781938     0.07400
H656        H  0.98028656  0.90131644  0.17661387     0.02300
H657        H  0.95332753  0.89959613  0.15282001     0.02800
H658        H  0.98594905  0.88764903  0.14396653     0.06300
H659        H  0.87316654  0.88761289  0.16814740     0.05200
H660        H  0.88777324  0.85711139  0.17993954    -0.00500
H661        H  0.90464247  0.87675227  0.15483930     0.01000
H662        H  0.95355118  0.91848566  0.27302932     0.04600
H663        H  0.93887823  0.95010436  0.26722890     0.06600
H664        H  0.96895776  0.94114742  0.24977106     0.07400
C665        C  0.21775407  0.08878603  0.62224502    -0.22200
C666        C  0.20218909  0.06574566  0.62056800     0.09800
C667        C  0.19755157  0.05385957  0.59557252     0.10200
C668        C  0.20854015  0.06545456  0.57264645    -0.17100
C669        C  0.22376983  0.08885881  0.57410564    -0.27500
C670        C  0.22895390  0.10038348  0.59940334     0.18500
C671        C  0.19019350  0.05493920  0.64520792     0.12500
C672        C  0.18068163  0.02920028  0.59309527    -0.11900
H673        H  0.20457846  0.05658331  0.55335540     0.12800
C674        C  0.24683831  0.12415881  0.60350758    -0.22700
H675        H  0.22136871  0.09765956  0.64160710     0.08400
C676        C  0.20409888  0.03709057  0.66180696     0.04700
C677        C  0.19159938  0.02733229  0.68488533    -0.20000
C678        C  0.16557401  0.03516965  0.69171220    -0.12200
C679        C  0.15230519  0.05427940  0.67568901     0.13400
C680        C  0.16459900  0.06338485  0.65232469    -0.22700
C681        C  0.23191296  0.02813066  0.65491204    -0.05700
H682        H  0.20194337  0.01301720  0.69728256     0.15000
C683        C  0.12583825  0.06658054  0.68299006    -0.15900
H684        H  0.15435195  0.07767013  0.63978671     0.09300
H685        H  0.26239236  0.11909205  0.61836354     0.07200
H686        H  0.23492467  0.14114616  0.61124492     0.08400
H687        H  0.25749021  0.13052908  0.58530024     0.07400
H688        H  0.16029228  0.03332310  0.60065802     0.02300
H689        H  0.18961571  0.01277692  0.60488258     0.02800
H690        H  0.17905183  0.02247498  0.57207514     0.06300
H691        H  0.23994934  0.01409649  0.66999068     0.05200
H692        H  0.24535578  0.04564659  0.65392353    -0.00500
H693        H  0.23190495  0.01790890  0.63529129     0.01000
H694        H  0.12754769  0.08863058  0.68230808     0.04600
H695        H  0.11905601  0.06162594  0.70336737     0.06600
H696        H  0.11048240  0.06021313  0.66845362     0.07400
C697        C  0.10324080  0.78170448  0.06107069    -0.22200
C698        C  0.11422541  0.80455427  0.07260070     0.09800
C699        C  0.10260901  0.81552901  0.09572667     0.10200
C700        C  0.08014085  0.80321783  0.10691942    -0.17100
C701        C  0.06898856  0.78029626  0.09538864    -0.27500
C702        C  0.08100022  0.76913374  0.07233318     0.18500
C703        C  0.13830960  0.81622103  0.06032775     0.12500
C704        C  0.11397605  0.84014609  0.10853434    -0.11900
H705        H  0.07097680  0.81177068  0.12455999     0.12800
C706        C  0.07197207  0.74344875  0.05963867    -0.22700
H707        H  0.11252741  0.77324677  0.04344286     0.08400
C708        C  0.16384155  0.80577591  0.06556506     0.04700
C709        C  0.18608170  0.81707707  0.05299499    -0.20000
C710        C  0.18331178  0.83854339  0.03532645    -0.12200
C711        C  0.15754996  0.84846669  0.02947209     0.13400
C712        C  0.13540474  0.83736540  0.04239799    -0.22700
C713        C  0.16758684  0.78292201  0.08463031    -0.05700
H714        H  0.20580668  0.80947269  0.05740177     0.15000
C715        C  0.15239958  0.86976383  0.00892163    -0.15900
H716        H  0.11561197  0.84489168  0.03804962     0.09300
H717        H  0.08912747  0.72952377  0.05820163     0.07200
H718        H  0.06449418  0.74753210  0.03924661     0.08400
H719        H  0.05632708  0.73295110  0.07103413     0.07400
H720        H  0.11345337  0.85696721  0.09419709     0.02300
H721        H  0.13490729  0.83639515  0.11455146     0.02800
H722        H  0.10251441  0.84608987  0.12654473     0.06300
H723        H  0.18890672  0.77740495  0.08671118     0.05200
H724        H  0.15664717  0.76517373  0.07732005    -0.00500
H725        H  0.15986259  0.78852564  0.10461324     0.01000
H726        H  0.13788435  0.86221503  0.99406974     0.04600
H727        H  0.17040972  0.87570040  0.99766703     0.06600
H728        H  0.14385883  0.88766107  0.01877008     0.07400
C729        C  0.21869797  0.91112571  0.88921296    -0.22200
C730        C  0.20040952  0.93202392  0.89205193     0.09800
C731        C  0.19415974  0.94178211  0.91766712     0.10200
C732        C  0.20625893  0.93020560  0.94001790    -0.17100
C733        C  0.22412086  0.90883216  0.93730074    -0.27500
C734        C  0.23093168  0.89956490  0.91148698     0.18500
C735        C  0.18805290  0.94344970  0.86788160     0.12500
C736        C  0.17445766  0.96413732  0.92135989    -0.11900
H737        H  0.20112179  0.93733955  0.95978241     0.12800
C738        C  0.25160546  0.87829263  0.90646714    -0.22700
H739        H  0.22368936  0.90399771  0.86940715     0.08400
C740        C  0.20073558  0.96365001  0.85308667     0.04700
C741        C  0.18803928  0.97413120  0.83053269    -0.20000
C742        C  0.16301082  0.96476758  0.82234644    -0.12200
C743        C  0.15082686  0.94364952  0.83665955     0.13400
C744        C  0.16337730  0.93361987  0.85951004    -0.22700
C745        C  0.22755681  0.97423245  0.86124339    -0.05700
H746        H  0.19754735  0.99003348  0.81944088     0.15000
C747        C  0.12544562  0.93017623  0.82798115    -0.15900
H748        H  0.15404305  0.91763514  0.87068682     0.09300
H749        H  0.26667823  0.88588644  0.89214488     0.07200
H750        H  0.24192497  0.86044161  0.89775804     0.08400
H751        H  0.26261372  0.87229892  0.92457751     0.07400
H752        H  0.15475554  0.95808220  0.91342337     0.02300
H753        H  0.18143581  0.98211551  0.91054897     0.02800
H754        H  0.17190548  0.96944832  0.94270208     0.06300
H755        H  0.23463371  0.99010117  0.84755066     0.05200
H756        H  0.24243288  0.95785267  0.86101135    -0.00500
H757        H  0.22633209  0.98272317  0.88164044     0.01000
H758        H  0.12913964  0.90847592  0.82563800     0.04600
H759        H  0.11775659  0.93734662  0.80867183     0.06600
H760        H  0.10982454  0.93313023  0.84340242     0.07400
C761        C  0.15374577  0.29829072  0.96890056    -0.22200
C762        C  0.13950960  0.31197184  0.94920754     0.09800
C763        C  0.14799529  0.33748372  0.94112945     0.10200
C764        C  0.17080855  0.34859632  0.95265724    -0.17100
C765        C  0.18525502  0.33502724  0.97238759    -0.27500
C766        C  0.17623226  0.30965231  0.98104492     0.18500
C767        C  0.11538495  0.29965484  0.93755467     0.12500
C768        C  0.13312809  0.35289161  0.92011172    -0.11900
H769        H  0.17751783  0.36801595  0.94604459     0.12800
C770        C  0.18858127  0.29442999  0.00379671    -0.22700
H771        H  0.14679376  0.27889361  0.97536423     0.08400
C772        C  0.11713234  0.28005870  0.91746927     0.04700
C773        C  0.09369332  0.27061777  0.90552281    -0.20000
C774        C  0.06858151  0.28030967  0.91328746    -0.12200
C775        C  0.06697078  0.30039335  0.93309764     0.13400
C776        C  0.09037138  0.30927097  0.94540010    -0.22700
C777        C  0.14372645  0.26936351  0.90851093    -0.05700
H778        H  0.09495215  0.25540128  0.89023437     0.15000
C779        C  0.04134097  0.31419113  0.94073530    -0.15900
H780        H  0.08920823  0.32467715  0.96052921     0.09300
H781        H  0.19756530  0.27569200  0.99616035     0.07200
H782        H  0.17288462  0.28931015  0.01855472     0.08400
H783        H  0.20386056  0.30571798  0.01482425     0.07400
H784        H  0.11254120  0.35711037  0.92701536     0.02300
H785        H  0.13235722  0.34112622  0.90138815     0.02800
H786        H  0.14284534  0.37225364  0.91567033     0.06300
H787        H  0.14159460  0.25449819  0.89225724     0.05200
H788        H  0.15388462  0.25952400  0.92548281    -0.00500
H789        H  0.15633763  0.28593007  0.90106117     0.01000
H790        H  0.03639864  0.30961809  0.96181037     0.04600
H791        H  0.02423186  0.30872081  0.92804238     0.06600
H792        H  0.04388564  0.33606821  0.93863341     0.07400
C793        C  0.08717768  0.11467974  0.79310912    -0.22200
C794        C  0.06389539  0.11106309  0.80806038     0.09800
C795        C  0.05274370  0.08544039  0.81052922     0.10200
C796        C  0.06580454  0.06368987  0.79876412    -0.17100
C797        C  0.08966955  0.06706584  0.78451616    -0.27500
C798        C  0.09994825  0.09308859  0.78075937     0.18500
C799        C  0.05149133  0.13447920  0.82090690     0.12500
C800        C  0.02737455  0.08105684  0.82598797    -0.11900
H801        H  0.05768686  0.04383191  0.80128268     0.12800
C802        C  0.12343983  0.09918233  0.76299016    -0.22700
H803        H  0.09520532  0.13458295  0.79074244     0.08400
C804        C  0.06068012  0.14411559  0.84559610     0.04700
C805        C  0.04859630  0.16665985  0.85683097    -0.20000
C806        C  0.02757983  0.17978871  0.84390805    -0.12200
C807        C  0.01763280  0.16935144  0.81963919     0.13400
C808        C  0.03011733  0.14707860  0.80823083    -0.22700
C809        C  0.08328185  0.13065831  0.85998707    -0.05700
H810        H  0.05606347  0.17447721  0.87551990     0.15000
C811        C  0.99334813  0.18020093  0.80572523    -0.15900
H812        H  0.02285310  0.13917622  0.78949483     0.09300
H813        H  0.14007958  0.10708306  0.77516937     0.07200
H814        H  0.11760310  0.11451618  0.74815978     0.08400
H815        H  0.13059991  0.08178833  0.75147265     0.07400
H816        H  0.01093243  0.09264254  0.81683391     0.02300
H817        H  0.03007813  0.08765382  0.84692502     0.02800
H818        H  0.02149626  0.05973488  0.82616067     0.06300
H819        H  0.08783048  0.14065372  0.87919274     0.05200
H820        H  0.10151585  0.13113432  0.84744824    -0.00500
H821        H  0.07795799  0.10962926  0.86426284     0.01000
H822        H  0.99918648  0.18856630  0.78609566     0.04600
H823        H  0.98270119  0.19567602  0.81729521     0.06600
H824        H  0.97890371  0.16379156  0.80243984     0.07400
C825        C  0.78352850  0.08237467  0.11919102    -0.22200
C826        C  0.80064612  0.06060026  0.11587668     0.09800
C827        C  0.80578404  0.05051682  0.09016545     0.10200
C828        C  0.79440805  0.06319713  0.06808282    -0.17100
C829        C  0.77790156  0.08557951  0.07122764    -0.27500
C830        C  0.77158358  0.09472055  0.09722102     0.18500
C831        C  0.81335518  0.04896851  0.13964884     0.12500
C832        C  0.82351297  0.02662487  0.08607347    -0.11900
H833        H  0.79896795  0.05600196  0.04821957     0.12800
C834        C  0.75163330  0.11654066  0.10279462    -0.22700
H835        H  0.77925618  0.08960639  0.13913110     0.08400
C836        C  0.83779299  0.05879724  0.14918314     0.04700
C837        C  0.84913644  0.04728987  0.17189887    -0.20000
C838        C  0.83658344  0.02618897  0.18530700    -0.12200
C839        C  0.81231731  0.01586665  0.17519629     0.13400
C840        C  0.80083051  0.02777750  0.15270731    -0.22700
C841        C  0.85177102  0.08151959  0.13543652    -0.05700
H842        H  0.86772646  0.05514574  0.17951087     0.15000
C843        C  0.79846699  0.99172972  0.18652278    -0.15900
H844        H  0.78220488  0.02012617  0.14493239     0.09300
H845        H  0.76194018  0.13398672  0.11160904     0.07200
H846        H  0.73654584  0.10919551  0.11723991     0.08400
H847        H  0.74050906  0.12303704  0.08494212     0.07400
H848        H  0.81497004  0.00915904  0.09660231     0.02300
H849        H  0.84367949  0.03075433  0.09406424     0.02800
H850        H  0.82556343  0.02144893  0.06464657     0.06300
H851        H  0.87070357  0.08680162  0.14552456     0.05200
H852        H  0.83874325  0.09940540  0.13544903    -0.00500
H853        H  0.85647495  0.07592741  0.11454684     0.01000
H854        H  0.77886508  0.99768862  0.19491674     0.04600
H855        H  0.81001930  0.98131116  0.20206471     0.06600
H856        H  0.79512640  0.97698906  0.17035940     0.07400
C857        C  0.89909349  0.22036978  0.94988117    -0.22200
C858        C  0.88720295  0.19816274  0.93789310     0.09800
C859        C  0.89765902  0.18807330  0.91380702     0.10200
C860        C  0.91985826  0.20043128  0.90223427    -0.17100
C861        C  0.93212649  0.22242102  0.91435076    -0.27500
C862        C  0.92135321  0.23281503  0.93835131     0.18500
C863        C  0.86352163  0.18589586  0.95052359     0.12500
C864        C  0.88579731  0.16384731  0.90066532    -0.11900
H865        H  0.92811042  0.19244383  0.88392314     0.12800
C866        C  0.93191315  0.25745874  0.95186873    -0.22700
H867        H  0.89070532  0.22825616  0.96820741     0.08400
C868        C  0.86584351  0.16850138  0.97245765     0.04700
C869        C  0.84291738  0.15609133  0.98260651    -0.20000
C870        C  0.81779384  0.16068472  0.97126426    -0.12200
C871        C  0.81563689  0.17773317  0.94888778     0.13400
C872        C  0.83847838  0.19054920  0.93922184    -0.22700
C873        C  0.89253037  0.16277087  0.98483793    -0.05700
H874        H  0.84457074  0.14287908  0.99961594     0.15000
C875        C  0.79008514  0.18179745  0.93365868    -0.15900
H876        H  0.83692013  0.20357366  0.92206086     0.09300
H877        H  0.93965555  0.25215036  0.97187615     0.07200
H878        H  0.91551129  0.27213461  0.95429615     0.08400
H879        H  0.94786836  0.26755761  0.94052040     0.07400
H880        H  0.86485521  0.16789708  0.89493481     0.02300
H881        H  0.88634457  0.14674628  0.91467491     0.02800
H882        H  0.89691822  0.15811507  0.88237921     0.06300
H883        H  0.89086822  0.14840730  0.00157859     0.05200
H884        H  0.90127690  0.18147870  0.99270099    -0.00500
H885        H  0.90615133  0.15414634  0.96964120     0.01000
H886        H  0.78365354  0.20289024  0.93544096     0.04600
H887        H  0.77363336  0.16877203  0.94035145     0.06600
H888        H  0.79352768  0.17715470  0.91228156     0.07400
C889        C  0.28385895  0.08433209  0.38669183    -0.22200
C890        C  0.30087667  0.06239228  0.38935479     0.09800
C891        C  0.30469754  0.05084180  0.41468706     0.10200
C892        C  0.29213343  0.06222310  0.43702132    -0.17100
C893        C  0.27568251  0.08474129  0.43450543    -0.27500
C894        C  0.27061100  0.09521143  0.40878761     0.18500
C895        C  0.31443628  0.05186750  0.36527672     0.12500
C896        C  0.32197587  0.02652902  0.41808190    -0.11900
H897        H  0.29577402  0.05394970  0.45663203     0.12800
C898        C  0.25056718  0.11698785  0.40358373    -0.22700
H899        H  0.28054058  0.09277403  0.36707710     0.08400
C900        C  0.30064457  0.03679479  0.34605679     0.04700
C901        C  0.31437309  0.02732666  0.32359185    -0.20000
C902        C  0.34161441  0.03260864  0.31975467    -0.12200
C903        C  0.35530358  0.04821193  0.33893715     0.13400
C904        C  0.34147473  0.05753917  0.36145837    -0.22700
C905        C  0.27151844  0.03042124  0.34940532    -0.05700
H906        H  0.30369466  0.01556771  0.30898899     0.15000
C907        C  0.38420953  0.05571130  0.33575706    -0.15900
H908        H  0.35176153  0.06948010  0.37621921     0.09300
H909        H  0.23643033  0.11028734  0.38797610     0.07200
H910        H  0.26095719  0.13514431  0.39643855     0.08400
H911        H  0.23834016  0.12206834  0.42123470     0.07400
H912        H  0.34271313  0.03104978  0.41189159     0.02300
H913        H  0.31415768  0.01001347  0.40563596     0.02800
H914        H  0.32239922  0.01970297  0.43912243     0.06300
H915        H  0.26395939  0.01787649  0.33283743     0.05200
H916        H  0.25968076  0.04909711  0.34976306    -0.00500
H917        H  0.26837597  0.01945682  0.36835548     0.01000
H918        H  0.39112920  0.06879356  0.35219476     0.04600
H919        H  0.38711481  0.06668715  0.31676907     0.06600
H920        H  0.39683133  0.03754786  0.33595824     0.07400
C921        C  0.31480780  0.90952599  0.11007601    -0.22200
C922        C  0.30725487  0.93577654  0.11567270     0.09800
C923        C  0.28843342  0.94873786  0.09947432     0.10200
C924        C  0.27735331  0.93499385  0.07789551    -0.17100
C925        C  0.28462160  0.90853320  0.07220571    -0.27500
C926        C  0.30369005  0.89561362  0.08856194     0.18500
C927        C  0.31895517  0.94918881  0.13899597     0.12500
C928        C  0.28010857  0.97706042  0.10501363    -0.11900
H929        H  0.26282380  0.94497591  0.06547935     0.12800
C930        C  0.31290852  0.86748564  0.08334029    -0.22700
H931        H  0.32937195  0.89990631  0.12271744     0.08400
C932        C  0.30709195  0.94714253  0.16435997     0.04700
C933        C  0.31890955  0.96010474  0.18602993    -0.20000
C934        C  0.34229428  0.97511061  0.18280993    -0.12200
C935        C  0.35352070  0.97806222  0.15701224     0.13400
C936        C  0.34194500  0.96452309  0.13554211    -0.22700
C937        C  0.28210839  0.93107681  0.16856809    -0.05700
H938        H  0.31026803  0.95794536  0.20557268     0.15000
C939        C  0.37677830  0.99608712  0.15095817    -0.15900
H940        H  0.35058964  0.96640467  0.11574441     0.09300
H941        H  0.32870520  0.86122768  0.09750169     0.07200
H942        H  0.32122584  0.86591251  0.06288757     0.08400
H943        H  0.29599799  0.85347574  0.08572439     0.07400
H944        H  0.29768226  0.99036967  0.10363514     0.02300
H945        H  0.27140873  0.97857841  0.12529959     0.02800
H946        H  0.26496147  0.98414760  0.09053751     0.06300
H947        H  0.27545949  0.93154821  0.18968030     0.05200
H948        H  0.28575937  0.90999721  0.16292163    -0.00500
H949        H  0.26578660  0.93920981  0.15610246     0.01000
H950        H  0.39419577  0.98392366  0.14469828     0.04600
H951        H  0.38255369  0.00894797  0.16786228     0.06600
H952        H  0.37137419  0.00972761  0.13440375     0.07400
C953        C  0.46764157  0.86699825  0.33086881    -0.22200
C954        C  0.45209443  0.86411277  0.30797268     0.09800
C955        C  0.44936961  0.83883991  0.29600559     0.10200
C956        C  0.46057765  0.81652254  0.30855811    -0.17100
C957        C  0.47488175  0.81918544  0.33241394    -0.27500
C958        C  0.47977144  0.84494810  0.34283138     0.18500
C959        C  0.43844129  0.88784618  0.29728036     0.12500
C960        C  0.43422134  0.83543392  0.27037044    -0.11900
H961        H  0.45744408  0.79686519  0.30018307     0.12800
C962        C  0.49844320  0.85018337  0.36574585    -0.22700
H963        H  0.47048724  0.88667739  0.33933966     0.08400
C964        C  0.41463361  0.89734588  0.30886046     0.04700
C965        C  0.40260953  0.92027663  0.29844908    -0.20000
C966        C  0.41392455  0.93390836  0.27681267    -0.12200
C967        C  0.43734293  0.92376589  0.26464517     0.13400
C968        C  0.44955546  0.90109796  0.27541746    -0.22700
C969        C  0.40196796  0.88327099  0.33217200    -0.05700
H970        H  0.38455504  0.92791682  0.30759017     0.15000
C971        C  0.44944304  0.93537471  0.23969611    -0.15900
H972        H  0.46767210  0.89342055  0.26643642     0.09300
H973        H  0.48703540  0.85795491  0.38306451     0.07200
H974        H  0.51336469  0.86532827  0.35964998     0.08400
H975        H  0.50989645  0.83239818  0.37195756     0.07400
H976        H  0.44388948  0.84724313  0.25436044     0.02300
H977        H  0.41338549  0.84239489  0.27301901     0.02800
H978        H  0.43376111  0.81428391  0.26387299     0.06300
H979        H  0.38324409  0.89319738  0.33861466     0.05200
H980        H  0.41584688  0.88316109  0.34934558    -0.00500
H981        H  0.39718575  0.86242332  0.32655528     0.01000
H982        H  0.46946178  0.94352094  0.24425497     0.04600
H983        H  0.43720724  0.95122183  0.23052516     0.06600
H984        H  0.45158843  0.91944040  0.22447143     0.07400
C985        C  0.45919169  0.13781004  0.16077033    -0.22200
C986        C  0.44612328  0.14033993  0.18528583     0.09800
C987        C  0.44520759  0.16519319  0.19829644     0.10200
C988        C  0.45741397  0.18717578  0.18632217    -0.17100
C989        C  0.47045867  0.18483185  0.16167246    -0.27500
C990        C  0.47183679  0.15963921  0.14889789     0.18500
C991        C  0.43415252  0.11647391  0.19737474     0.12500
C992        C  0.43095822  0.16859506  0.22454075    -0.11900
H993        H  0.45639458  0.20643642  0.19608857     0.12800
C994        C  0.48735488  0.15441903  0.12361768    -0.22700
H995        H  0.46010201  0.11844838  0.15117833     0.08400
C996        C  0.40938322  0.10665426  0.18876675     0.04700
C997        C  0.39868756  0.08412576  0.20120487    -0.20000
C998        C  0.41219797  0.07129629  0.22205225    -0.12200
C999        C  0.43679260  0.08168888  0.23111564     0.13400
C1000       C  0.44768907  0.10385646  0.21818633    -0.22700
C1001       C  0.39424420  0.12002526  0.16660110    -0.05700
H1002       H  0.37982028  0.07623421  0.19432198     0.15000
C1003       C  0.45155597  0.07107342  0.25500195    -0.15900
H1004       H  0.46660018  0.11184745  0.22484930     0.09300
H1005       H  0.47337639  0.14945000  0.10725355     0.07200
H1006       H  0.50094869  0.13723032  0.12672621     0.08400
H1007       H  0.50011240  0.17121153  0.11733995     0.07400
H1008       H  0.44029414  0.15575508  0.23989804     0.02300
H1009       H  0.40970702  0.16296303  0.22228947     0.02800
H1010       H  0.43179032  0.18951493  0.23171237     0.06300
H1011       H  0.37496428  0.10996927  0.16264611     0.05200
H1012       H  0.40619235  0.11952419  0.14797229    -0.00500
H1013       H  0.39004241  0.14106154  0.17204564     0.01000
H1014       H  0.47086033  0.06239904  0.24850611     0.04600
H1015       H  0.44031962  0.05594610  0.26638350     0.06600
H1016       H  0.45556201  0.08767724  0.26907004     0.07400
C1017       C  0.41623512  0.31268967  0.05865234    -0.22200
C1018       C  0.39140646  0.30895545  0.07078959     0.09800
C1019       C  0.38975186  0.29530846  0.09526788     0.10200
C1020       C  0.41305695  0.28507220  0.10677658    -0.17100
C1021       C  0.43802695  0.28842325  0.09449665    -0.27500
C1022       C  0.43969221  0.30325710  0.07049519     0.18500
C1023       C  0.36744466  0.32023470  0.05789011     0.12500
C1024       C  0.36339900  0.29165106  0.10919608    -0.11900
H1025       H  0.41169401  0.27401271  0.12530826     0.12800
C1026       C  0.46565724  0.31086149  0.05738716    -0.22700
H1027       H  0.41737447  0.32377774  0.04013242     0.08400
C1028       C  0.36017083  0.34709426  0.06157026     0.04700
C1029       C  0.33686337  0.35674435  0.04962575    -0.20000
C1030       C  0.32072822  0.34025043  0.03376682    -0.12200
C1031       C  0.32866468  0.31342818  0.02939034     0.13400
C1032       C  0.35185234  0.30377682  0.04171066    -0.22700
C1033       C  0.37699203  0.36552455  0.07818973    -0.05700
H1034       H  0.33115615  0.37730210  0.05289300     0.15000
C1035       C  0.31337965  0.29496440  0.01135164    -0.15900
H1036       H  0.35793752  0.28324774  0.03872413     0.09300
H1037       H  0.46582034  0.33266395  0.05362645     0.07200
H1038       H  0.46765232  0.30029592  0.03804562     0.08400
H1039       H  0.48335354  0.30671656  0.06976458     0.07400
H1040       H  0.34964098  0.28023203  0.09623056     0.02300
H1041       H  0.35447529  0.31141008  0.11367267     0.02800
H1042       H  0.36562030  0.28065220  0.12825585     0.06300
H1043       H  0.36839768  0.38590740  0.07915145     0.05200
H1044       H  0.39725049  0.36702188  0.06942370    -0.00500
H1045       H  0.37851040  0.35772405  0.09881903     0.01000
H1046       H  0.32335312  0.27528545  0.00930458     0.04600
H1047       H  0.31186501  0.30381171  0.99114773     0.06600
H1048       H  0.29318234  0.29136813  0.01959313     0.07400
C1049       C  0.59133116  0.19212547  0.05897172    -0.22200
C1050       C  0.61486532  0.19187021  0.07384235     0.09800
C1051       C  0.61508435  0.20251501  0.09980457     0.10200
C1052       C  0.59170321  0.21377393  0.11016941    -0.17100
C1053       C  0.56808995  0.21454548  0.09518972    -0.27500
C1054       C  0.56770695  0.20275235  0.06949139     0.18500
C1055       C  0.63902173  0.18015565  0.06177150     0.12500
C1056       C  0.63995724  0.20192810  0.11651734    -0.11900
H1057       H  0.59201368  0.22244169  0.12994437     0.12800
C1058       C  0.54287969  0.19967572  0.05292066    -0.22700
H1059       H  0.59129198  0.18344870  0.03924964     0.08400
C1060       C  0.64287220  0.15238918  0.06076232     0.04700
C1061       C  0.66588780  0.14221396  0.04860838    -0.20000
C1062       C  0.68525071  0.15918267  0.03751399    -0.12200
C1063       C  0.68125890  0.18716327  0.03867967     0.13400
C1064       C  0.65811146  0.19721724  0.05078290    -0.22700
C1065       C  0.62281392  0.13355237  0.07275189    -0.05700
H1066       H  0.66878665  0.12086799  0.04794564     0.15000
C1067       C  0.70084100  0.20667088  0.02696163    -0.15900
H1068       H  0.65476612  0.21852194  0.05164801     0.09300
H1069       H  0.54060036  0.17844642  0.04710718     0.07200
H1070       H  0.54467906  0.21186898  0.03456283     0.08400
H1071       H  0.52434966  0.20517868  0.06349123     0.07400
H1072       H  0.65599980  0.21336772  0.10650637     0.02300
H1073       H  0.64659427  0.18101589  0.11928996     0.02800
H1074       H  0.63657736  0.21083918  0.13652913     0.06300
H1075       H  0.62910559  0.11243036  0.07059869     0.05200
H1076       H  0.60330831  0.13594042  0.06268168    -0.00500
H1077       H  0.62041130  0.13789776  0.09431466     0.01000
H1078       H  0.70354836  0.20259938  0.00535417     0.04600
H1079       H  0.72022807  0.20506605  0.03740048     0.06600
H1080       H  0.69388843  0.22756752  0.02905906     0.07400
C1081       C  0.68451929  0.44537186  0.41277818    -0.22200
C1082       C  0.69576673  0.43946366  0.38791029     0.09800
C1083       C  0.71763225  0.42194646  0.38614163     0.10200
C1084       C  0.72769850  0.41044694  0.40946048    -0.17100
C1085       C  0.71641346  0.41618012  0.43443056    -0.27500
C1086       C  0.69433952  0.43369838  0.43613935     0.18500
C1087       C  0.68370038  0.45114047  0.36384068     0.12500
C1088       C  0.73013385  0.41527293  0.35964528    -0.11900
H1089       H  0.74453988  0.39697038  0.40822908     0.12800
C1090       C  0.67969014  0.43951600  0.46176991    -0.22700
H1091       H  0.66748265  0.45863361  0.41385157     0.08400
C1092       C  0.66187460  0.43890296  0.35121973     0.04700
C1093       C  0.65110520  0.45063576  0.32834422    -0.20000
C1094       C  0.66160208  0.47436799  0.31793840    -0.12200
C1095       C  0.68297220  0.48709805  0.33121299     0.13400
C1096       C  0.69402857  0.47499064  0.35379034    -0.22700
C1097       C  0.65010045  0.41342480  0.36183527    -0.05700
H1098       H  0.63459554  0.44103684  0.31831265     0.15000
C1099       C  0.69381959  0.51394428  0.32321784    -0.15900
H1100       H  0.71050218  0.48449100  0.36398302     0.09300
H1101       H  0.65835911  0.43422418  0.45939435     0.07200
H1102       H  0.68114749  0.46109220  0.46641153     0.08400
H1103       H  0.68720967  0.42810395  0.47902896     0.07400
H1104       H  0.73769798  0.43372354  0.35009470     0.02300
H1105       H  0.71511644  0.40590537  0.34643693     0.02800
H1106       H  0.74707674  0.40120541  0.36183202     0.06300
H1107       H  0.63312437  0.40648862  0.34951309     0.05200
H1108       H  0.64274042  0.41660169  0.38247144    -0.00500
H1109       H  0.66548350  0.39752231  0.36192428     0.01000
H1110       H  0.69284579  0.52766188  0.34056867     0.04600
H1111       H  0.68253926  0.52361387  0.30699169     0.06600
H1112       H  0.71492880  0.51182167  0.31693222     0.07400
C1113       C  0.56023819  0.66123220  0.30927931    -0.22200
C1114       C  0.55262617  0.63651959  0.31964249     0.09800
C1115       C  0.53492220  0.63531805  0.34144148     0.10200
C1116       C  0.52467123  0.65907581  0.35207129    -0.17100
C1117       C  0.53190961  0.68389628  0.34142766    -0.27500
C1118       C  0.55051714  0.68503002  0.32018852     0.18500
C1119       C  0.56449866  0.61224597  0.30799613     0.12500
C1120       C  0.52685760  0.60899815  0.35334887    -0.11900
H1121       H  0.51068783  0.65827221  0.36854141     0.12800
C1122       C  0.56174765  0.71071695  0.30937929    -0.22700
H1123       H  0.57441154  0.66194376  0.29294805     0.08400
C1124       C  0.55335326  0.59977205  0.28547966     0.04700
C1125       C  0.56605124  0.57736536  0.27456561    -0.20000
C1126       C  0.58975273  0.56744115  0.28554114    -0.12200
C1127       C  0.60039525  0.57951527  0.30872784     0.13400
C1128       C  0.58775377  0.60202407  0.31939998    -0.22700
C1129       C  0.52829252  0.61032584  0.27286640    -0.05700
H1130       H  0.55782434  0.56796717  0.25695840     0.15000
C1131       C  0.62430139  0.56884155  0.32346227    -0.15900
H1132       H  0.59596451  0.61158242  0.33693151     0.09300
H1133       H  0.55593572  0.71302653  0.28818171     0.07200
H1134       H  0.58382136  0.71011612  0.31061338     0.08400
H1135       H  0.55525207  0.72859885  0.32053793     0.07400
H1136       H  0.54473496  0.59841670  0.36089789     0.02300
H1137       H  0.51705485  0.59652350  0.33797049     0.02800
H1138       H  0.51273125  0.61161768  0.37021706     0.06300
H1139       H  0.52219757  0.59814948  0.25543386     0.05200
H1140       H  0.53154274  0.63108014  0.26597419    -0.00500
H1141       H  0.51179134  0.61008568  0.28762330     0.01000
H1142       H  0.64067819  0.58365946  0.32268311     0.04600
H1143       H  0.63175234  0.54961647  0.31564044     0.06600
H1144       H  0.61884936  0.56536537  0.34463437     0.07400
C1145       C  0.59597108  0.39710302  0.18813480    -0.22200
C1146       C  0.57166210  0.38834158  0.19860964     0.09800
C1147       C  0.55870610  0.40331521  0.21853323     0.10200
C1148       C  0.57043713  0.42696291  0.22758812    -0.17100
C1149       C  0.59487393  0.43582343  0.21721793    -0.27500
C1150       C  0.60765296  0.42087721  0.19688040     0.18500
C1151       C  0.55951496  0.36407491  0.18738997     0.12500
C1152       C  0.53253485  0.39429904  0.23013165    -0.11900
H1153       H  0.56067086  0.43840224  0.24312848     0.12800
C1154       C  0.63277939  0.42974476  0.18292769    -0.22700
H1155       H  0.60553599  0.38562644  0.17246721     0.08400
C1156       C  0.54386218  0.36527736  0.16418684     0.04700
C1157       C  0.53338852  0.34172253  0.15365038    -0.20000
C1158       C  0.53805680  0.31701478  0.16585327    -0.12200
C1159       C  0.55388037  0.31581964  0.18918316     0.13400
C1160       C  0.56423671  0.33952497  0.19975035    -0.22700
C1161       C  0.53811758  0.39144310  0.15066113    -0.05700
H1162       H  0.52120577  0.34263329  0.13584382     0.15000
C1163       C  0.56139599  0.29014746  0.20284204    -0.15900
H1164       H  0.57652142  0.33882595  0.21746814     0.09300
H1165       H  0.62922699  0.43043619  0.16110621     0.07200
H1166       H  0.64900042  0.41527224  0.18697102     0.08400
H1167       H  0.63955046  0.44985968  0.18877259     0.07400
H1168       H  0.53497837  0.37439534  0.23944945     0.02300
H1169       H  0.51734267  0.39299722  0.21415890     0.02800
H1170       H  0.52509984  0.40830528  0.24559949     0.06300
H1171       H  0.52527525  0.38882430  0.13286599     0.05200
H1172       H  0.55703894  0.40081683  0.14411504    -0.00500
H1173       H  0.52770630  0.40502275  0.16471666     0.01000
H1174       H  0.58342864  0.28874157  0.20417894     0.04600
H1175       H  0.55455520  0.27211971  0.19223589     0.06600
H1176       H  0.55297595  0.28996562  0.22331869     0.07400
C1177       C  0.81048099  0.46870298  0.64585408    -0.22200
C1178       C  0.82097769  0.44491274  0.63571970     0.09800
C1179       C  0.84337484  0.43322614  0.64791134     0.10200
C1180       C  0.85442266  0.44536872  0.67050049    -0.17100
C1181       C  0.84380107  0.46909751  0.68100367    -0.27500
C1182       C  0.82185710  0.48128579  0.66804859     0.18500
C1183       C  0.80867319  0.43311595  0.61173266     0.12500
C1184       C  0.85573901  0.40812191  0.63694113    -0.11900
H1185       H  0.87134872  0.43612041  0.68017561     0.12800
C1186       C  0.81060051  0.50803686  0.67591504    -0.22700
H1187       H  0.79362801  0.47784846  0.63595401     0.08400
C1188       C  0.78882368  0.41339679  0.61368514     0.04700
C1189       C  0.77781256  0.40282152  0.59031534    -0.20000
C1190       C  0.78595635  0.41175344  0.56506226    -0.12200
C1191       C  0.80609206  0.43146028  0.56317504     0.13400
C1192       C  0.81693307  0.44206915  0.58662706    -0.22700
C1193       C  0.77896375  0.40388183  0.64040738    -0.05700
H1194       H  0.76237254  0.38781087  0.59177611     0.15000
C1195       C  0.81762260  0.44105422  0.53711076    -0.15900
H1196       H  0.83233076  0.45715062  0.58533995     0.09300
H1197       H  0.78989152  0.50552075  0.68327725     0.07200
H1198       H  0.81028816  0.52130318  0.65821640     0.08400
H1199       H  0.82239588  0.51847540  0.69125974     0.07400
H1200       H  0.86249998  0.41157079  0.61615211     0.02300
H1201       H  0.84099715  0.39169359  0.63710120     0.02800
H1202       H  0.87321462  0.40170179  0.64885556     0.06300
H1203       H  0.76312275  0.38860569  0.63833792     0.05200
H1204       H  0.77063162  0.42093239  0.65181860    -0.00500
H1205       H  0.79557651  0.39494835  0.65186691     0.01000
H1206       H  0.81312319  0.46255975  0.53454776     0.04600
H1207       H  0.81022676  0.43010053  0.51951989     0.06600
H1208       H  0.83957787  0.43836648  0.53735377     0.07400
C1209       C  0.96591332  0.36552251  0.83776571    -0.22200
C1210       C  0.95293525  0.36243086  0.81334798     0.09800
C1211       C  0.95117624  0.33702203  0.80156501     0.10200
C1212       C  0.96213531  0.31502752  0.81482631    -0.17100
C1213       C  0.97435517  0.31784962  0.83984083    -0.27500
C1214       C  0.97655101  0.34357762  0.85133335     0.18500
C1215       C  0.94011767  0.38594754  0.80122534     0.12500
C1216       C  0.93719036  0.33308309  0.77534552    -0.11900
H1217       H  0.96047050  0.29544486  0.80594340     0.12800
C1218       C  0.99024778  0.34825580  0.87763108    -0.22700
H1219       H  0.96718605  0.38536311  0.84656071     0.08400
C1220       C  0.91475736  0.39449440  0.80972967     0.04700
C1221       C  0.90338525  0.41713073  0.79808959    -0.20000
C1222       C  0.91696578  0.43172124  0.77841842    -0.12200
C1223       C  0.94257558  0.42313401  0.77001878     0.13400
C1224       C  0.95374588  0.40016777  0.78146351    -0.22700
C1225       C  0.89972048  0.37969885  0.83110775    -0.05700
H1226       H  0.88391863  0.42367805  0.80472400     0.15000
C1227       C  0.95816378  0.43765995  0.74884972    -0.15900
H1228       H  0.97317589  0.39337984  0.77521030     0.09300
H1229       H  0.99136021  0.36980551  0.88261004     0.07200
H1230       H  0.01091559  0.34039981  0.87680753     0.08400
H1231       H  0.97905077  0.33835726  0.89391564     0.07400
H1232       H  0.94722374  0.34498587  0.75963085     0.02300
H1233       H  0.91612778  0.33960698  0.77711266     0.02800
H1234       H  0.93737199  0.31186392  0.76904813     0.06300
H1235       H  0.88002739  0.38892277  0.83523260     0.05200
H1236       H  0.91132765  0.37981550  0.84990918    -0.00500
H1237       H  0.89638993  0.35878290  0.82475159     0.01000
H1238       H  0.97714184  0.42735607  0.74404362     0.04600
H1239       H  0.96321026  0.45800844  0.75588099     0.06600
H1240       H  0.94627683  0.43889049  0.73025078     0.07400
C1241       C  0.69449830  0.59699428  0.10805301    -0.22200
C1242       C  0.70147119  0.57069556  0.11420259     0.09800
C1243       C  0.71907543  0.55665667  0.09737257     0.10200
C1244       C  0.72914632  0.56918684  0.07448178    -0.17100
C1245       C  0.72216345  0.59554300  0.06798453    -0.27500
C1246       C  0.70460957  0.60967754  0.08520168     0.18500
C1247       C  0.68936700  0.55801742  0.13797611     0.12500
C1248       C  0.72734975  0.52851669  0.10371044    -0.11900
H1249       H  0.74266808  0.55824447  0.06158723     0.12800
C1250       C  0.69584059  0.63785227  0.07959014    -0.22700
H1251       H  0.68094822  0.60746690  0.12106223     0.08400
C1252       C  0.69921498  0.56270049  0.16384198     0.04700
C1253       C  0.68658373  0.55068719  0.18572863    -0.20000
C1254       C  0.66434455  0.53409936  0.18231873    -0.12200
C1255       C  0.65517522  0.52857353  0.15619993     0.13400
C1256       C  0.66755053  0.54102615  0.13443280    -0.22700
C1257       C  0.72306429  0.58028982  0.16828150    -0.05700
H1258       H  0.69380777  0.55467343  0.20567193     0.15000
C1259       C  0.63334322  0.50885088  0.15018990    -0.15900
H1260       H  0.66040987  0.53713810  0.11448633     0.09300
H1261       H  0.68149779  0.64524211  0.09477956     0.07200
H1262       H  0.68585934  0.63882025  0.05988895     0.08400
H1263       H  0.71330278  0.65137449  0.07985992     0.07400
H1264       H  0.70961371  0.51535434  0.10403495     0.02300
H1265       H  0.73715963  0.52793963  0.12350082     0.02800
H1266       H  0.74156334  0.52052943  0.08869619     0.06300
H1267       H  0.72836301  0.58159694  0.18973028     0.05200
H1268       H  0.71879609  0.60072375  0.16102697    -0.00500
H1269       H  0.74048089  0.57213154  0.15731098     0.01000
H1270       H  0.61618853  0.51937867  0.14104682     0.04600
H1271       H  0.62626299  0.49776485  0.16786125     0.06600
H1272       H  0.64090421  0.49373619  0.13587476     0.07400
C1273       C  0.86675663  0.66952630  0.03805528    -0.22200
C1274       C  0.86272169  0.69216008  0.05385517     0.09800
C1275       C  0.83698428  0.70320781  0.05614544     0.10200
C1276       C  0.81557063  0.69075101  0.04316375    -0.17100
C1277       C  0.81941236  0.66749386  0.02799767    -0.27500
C1278       C  0.84555927  0.65729396  0.02468022     0.18500
C1279       C  0.88586162  0.70371466  0.06793771     0.12500
C1280       C  0.83211249  0.72775528  0.07273712    -0.11900
H1281       H  0.79567008  0.69870604  0.04554709     0.12800
C1282       C  0.85219632  0.63425539  0.00651090    -0.22700
H1283       H  0.88670124  0.66148959  0.03594927     0.08400
C1284       C  0.89437429  0.69352620  0.09264407     0.04700
C1285       C  0.91721567  0.70413162  0.10463824    -0.20000
C1286       C  0.93169491  0.72484835  0.09259910    -0.12200
C1287       C  0.92227199  0.73594496  0.06836762     0.13400
C1288       C  0.89980530  0.72475872  0.05609773    -0.22700
C1289       C  0.87938822  0.67138138  0.10625220    -0.05700
H1290       H  0.92410424  0.69578654  0.12331139     0.15000
C1291       C  0.93433573  0.76016247  0.05529570    -0.15900
H1292       H  0.89282676  0.73278632  0.03733893     0.09300
H1293       H  0.85927008  0.61711153  0.01854506     0.07200
H1294       H  0.86830709  0.64027220  0.99255910     0.08400
H1295       H  0.83529796  0.62778170  0.99399952     0.07400
H1296       H  0.84404228  0.74459118  0.06479721     0.02300
H1297       H  0.83799546  0.72391728  0.09369725     0.02800
H1298       H  0.81081101  0.73372263  0.07256947     0.06300
H1299       H  0.88859836  0.66587816  0.12557751     0.05200
H1300       H  0.87923218  0.65341408  0.09334581    -0.00500
H1301       H  0.85856845  0.67777129  0.11017129     0.01000
H1302       H  0.94346791  0.75441213  0.03596158     0.04600
H1303       H  0.94938290  0.77036547  0.06765045     0.06600
H1304       H  0.91844688  0.77509155  0.05151316     0.07400
C1305       C  0.81425291  0.58795586  0.89249687    -0.22200
C1306       C  0.80936985  0.56070120  0.88941187     0.09800
C1307       C  0.79409724  0.54711539  0.90866028     0.10200
C1308       C  0.78353454  0.56131741  0.93043678    -0.17100
C1309       C  0.78775757  0.58891474  0.93335278    -0.27500
C1310       C  0.80369724  0.60230138  0.91413342     0.18500
C1311       C  0.82014410  0.54711908  0.86544612     0.12500
C1312       C  0.78870493  0.51772859  0.90599501    -0.11900
H1313       H  0.77162893  0.55084710  0.94499834     0.12800
C1314       C  0.81004331  0.63157935  0.91613523    -0.22700
H1315       H  0.82619499  0.59807786  0.87766897     0.08400
C1316       C  0.80656326  0.54797426  0.84089816     0.04700
C1317       C  0.81842756  0.53666224  0.81818849    -0.20000
C1318       C  0.84358810  0.52450026  0.81946753    -0.12200
C1319       C  0.85653171  0.52238069  0.84449076     0.13400
C1320       C  0.84483738  0.53420852  0.86705258    -0.22700
C1321       C  0.77968655  0.56111637  0.83865685    -0.05700
H1322       H  0.80835678  0.53803802  0.79919341     0.15000
C1323       C  0.88208283  0.50708230  0.84858679    -0.15900
H1324       H  0.85490087  0.53322218  0.88597423     0.09300
H1325       H  0.79145389  0.64349211  0.91458425     0.07200
H1326       H  0.82351656  0.63821242  0.89988941     0.08400
H1327       H  0.82011526  0.63578334  0.93535087     0.07400
H1328       H  0.80781815  0.50656819  0.90587070     0.02300
H1329       H  0.77795275  0.51378858  0.88709430     0.02800
H1330       H  0.77635635  0.51013552  0.92270654     0.06300
H1331       H  0.77175862  0.55998231  0.81805554     0.05200
H1332       H  0.78121302  0.58245753  0.84427403    -0.00500
H1333       H  0.76532201  0.55109232  0.85216506     0.01000
H1334       H  0.89826156  0.52105369  0.85414256     0.04600
H1335       H  0.88837951  0.49540621  0.83094636     0.06600
H1336       H  0.87931180  0.49251327  0.86499156     0.07400
C1337       C  0.55010366  0.09563872  0.70794259    -0.22200
C1338       C  0.56687543  0.11620058  0.69949455     0.09800
C1339       C  0.59463802  0.11374565  0.70255582     0.10200
C1340       C  0.60508647  0.09041805  0.71374947    -0.17100
C1341       C  0.58842730  0.06940728  0.72193250    -0.27500
C1342       C  0.56043933  0.07216035  0.71899827     0.18500
C1343       C  0.55492047  0.13965540  0.68640212     0.12500
C1344       C  0.61323303  0.13551746  0.69355189    -0.11900
H1345       H  0.62646328  0.08858918  0.71593998     0.12800
C1346       C  0.54119275  0.05052051  0.72688895    -0.22700
H1347       H  0.52879483  0.09787879  0.70543141     0.08400
C1348       C  0.54635856  0.13848232  0.65972302     0.04700
C1349       C  0.53535690  0.16125553  0.64796365    -0.20000
C1350       C  0.53302355  0.18529659  0.66214056    -0.12200
C1351       C  0.54234963  0.18656823  0.68880539     0.13400
C1352       C  0.55261703  0.16348139  0.70070946    -0.22700
C1353       C  0.54921778  0.11331079  0.64356942    -0.05700
H1354       H  0.52839644  0.16022188  0.62756228     0.15000
C1355       C  0.54331845  0.21184295  0.70506851    -0.15900
H1356       H  0.55961836  0.16424093  0.72111327     0.09300
H1357       H  0.54558534  0.03206820  0.71547322     0.07200
H1358       H  0.52023444  0.05617669  0.72266488     0.08400
H1359       H  0.54269181  0.04659145  0.74859363     0.07400
H1360       H  0.60898537  0.15410715  0.70477570     0.02300
H1361       H  0.61050383  0.13925372  0.67192815     0.02800
H1362       H  0.63441950  0.13014324  0.69693829     0.06300
H1363       H  0.54198935  0.11598551  0.62284917     0.05200
H1364       H  0.53749276  0.09704039  0.65285613    -0.00500
H1365       H  0.57050812  0.10735999  0.64266213     0.01000
H1366       H  0.52961430  0.21010325  0.72237227     0.04600
H1367       H  0.53828897  0.23001237  0.69376310     0.06600
H1368       H  0.56388115  0.21482357  0.71260155     0.07400
C1369       C  0.65851808  0.05935015  0.86194869    -0.22200
C1370       C  0.68597046  0.05578617  0.86494283     0.09800
C1371       C  0.70045708  0.04119860  0.84582897     0.10200
C1372       C  0.68711083  0.03071197  0.82370893    -0.17100
C1373       C  0.65949927  0.03417679  0.82046125    -0.27500
C1374       C  0.64495873  0.04861942  0.84004326     0.18500
C1375       C  0.69893886  0.06710912  0.88870667     0.12500
C1376       C  0.72997111  0.03676054  0.84879792    -0.11900
H1377       H  0.69833308  0.01960182  0.80900854     0.12800
C1378       C  0.61531383  0.05308682  0.83820979    -0.22700
H1379       H  0.64770062  0.07048248  0.87694244     0.08400
C1380       C  0.70678440  0.09400004  0.88962391     0.04700
C1381       C  0.71775031  0.10414966  0.91315966    -0.20000
C1382       C  0.72119241  0.08798647  0.93577778    -0.12200
C1383       C  0.71358931  0.06079392  0.93456369     0.13400
C1384       C  0.70250066  0.05078182  0.91097857    -0.22700
C1385       C  0.70359926  0.11189621  0.86575294    -0.05700
H1386       H  0.72369217  0.12493216  0.91384657     0.15000
C1387       C  0.71633344  0.04228536  0.95803215    -0.15900
H1388       H  0.69627131  0.03012239  0.90991269     0.09300
H1389       H  0.60767603  0.06525419  0.85507371     0.07200
H1390       H  0.60475049  0.03367286  0.83879292     0.08400
H1391       H  0.61047612  0.06382184  0.81950421     0.07400
H1392       H  0.73400292  0.02582198  0.86757282     0.02300
H1393       H  0.74041324  0.05624292  0.84932741     0.02800
H1394       H  0.73827935  0.02491554  0.83202656     0.06300
H1395       H  0.71105451  0.13233256  0.86975045     0.05200
H1396       H  0.68224530  0.11335486  0.86029116    -0.00500
H1397       H  0.71497754  0.10362065  0.84863954     0.01000
H1398       H  0.70852931  0.02205740  0.95354519     0.04600
H1399       H  0.70494148  0.05023599  0.97526235     0.06600
H1400       H  0.73764385  0.04005959  0.96339534     0.07400
C1401       C  0.60510486  0.72064481  0.94101516    -0.22200
C1402       C  0.61517160  0.69665245  0.93080673     0.09800
C1403       C  0.60280296  0.68475658  0.90859909     0.10200
C1404       C  0.58041468  0.69700325  0.89726932    -0.17100
C1405       C  0.57016526  0.72099666  0.90746883    -0.27500
C1406       C  0.58320215  0.73339668  0.92922884     0.18500
C1407       C  0.63930820  0.68483692  0.94303396     0.12500
C1408       C  0.61340043  0.65930480  0.89666965    -0.11900
H1409       H  0.57062317  0.68755454  0.88052449     0.12800
C1410       C  0.57577487  0.76058328  0.93973185    -0.22700
H1411       H  0.61495227  0.72990437  0.95781825     0.08400
C1412       C  0.66477549  0.69585055  0.93869377     0.04700
C1413       C  0.68710434  0.68374271  0.95033648    -0.20000
C1414       C  0.68463317  0.66084598  0.96623723    -0.12200
C1415       C  0.65887768  0.65023002  0.97113564     0.13400
C1416       C  0.63665535  0.66221759  0.95913696    -0.22700
C1417       C  0.66844766  0.72006041  0.92134044    -0.05700
H1418       H  0.70670740  0.69200378  0.94666617     0.15000
C1419       C  0.65356056  0.62723765  0.98974600    -0.15900
H1420       H  0.61695178  0.65411403  0.96274829     0.09300
H1421       H  0.59378527  0.77339961  0.94014806     0.07200
H1422       H  0.56787193  0.75873775  0.96032238     0.08400
H1423       H  0.56102026  0.77114236  0.92727601     0.07400
H1424       H  0.61240129  0.64302995  0.91158537     0.02300
H1425       H  0.63440821  0.66216519  0.89034475     0.02800
H1426       H  0.60173539  0.65304959  0.87897211     0.06300
H1427       H  0.68976248  0.72562953  0.91941660     0.05200
H1428       H  0.65765925  0.73729838  0.93006753    -0.00500
H1429       H  0.66058824  0.71599459  0.90108447     0.01000
H1430       H  0.63867067  0.63342021  0.00494749     0.04600
H1431       H  0.67127421  0.62042788  0.00084651     0.06600
H1432       H  0.64536043  0.61020719  0.97829132     0.07400
C1433       C  0.44597432  0.66118434  0.79875113    -0.22200
C1434       C  0.44705413  0.63695404  0.81246793     0.09800
C1435       C  0.45962088  0.63568345  0.83747201     0.10200
C1436       C  0.47043380  0.65892132  0.84852145    -0.17100
C1437       C  0.46921512  0.68348216  0.83507148    -0.27500
C1438       C  0.45694717  0.68451366  0.80960648     0.18500
C1439       C  0.43449588  0.61317036  0.80045865     0.12500
C1440       C  0.46151025  0.60978344  0.85249629    -0.11900
H1441       H  0.47993482  0.65780731  0.86787681     0.12800
C1442       C  0.45493156  0.70993976  0.79376349    -0.22700
H1443       H  0.43626911  0.66181076  0.77942406     0.08400
C1444       C  0.40732430  0.60750978  0.80452289     0.04700
C1445       C  0.39630244  0.58462104  0.79293997    -0.20000
C1446       C  0.41181969  0.56716570  0.77739428    -0.12200
C1447       C  0.43903702  0.57337892  0.77274540     0.13400
C1448       C  0.45001839  0.59614185  0.78469787    -0.22700
C1449       C  0.39008145  0.62547287  0.82136364    -0.05700
H1450       H  0.37551718  0.58005497  0.79652090     0.15000
C1451       C  0.45702750  0.55747920  0.75459628    -0.15900
H1452       H  0.47084517  0.60089982  0.78138037     0.09300
H1453       H  0.44437280  0.70687288  0.77456761     0.07200
H1454       H  0.47515926  0.71747621  0.78900921     0.08400
H1455       H  0.44365192  0.72512073  0.80527090     0.07400
H1456       H  0.47282229  0.59501075  0.84048807     0.02300
H1457       H  0.44124846  0.60192556  0.85651612     0.02800
H1458       H  0.47184229  0.61227708  0.87188211     0.06300
H1459       H  0.36927918  0.61808175  0.82264183     0.05200
H1460       H  0.38964695  0.64577035  0.81261317    -0.00500
H1461       H  0.39819500  0.62659973  0.84188547     0.01000
H1462       H  0.46602138  0.57098297  0.73953672     0.04600
H1463       H  0.44668720  0.54171693  0.74330348     0.06600
H1464       H  0.47326985  0.54832115  0.76644740     0.07400
C1465       C  0.53691897  0.84882944  0.80047492    -0.22200
C1466       C  0.55762211  0.86144987  0.81418517     0.09800
C1467       C  0.56634314  0.85117052  0.83876420     0.10200
C1468       C  0.55366468  0.82874821  0.84946944    -0.17100
C1469       C  0.53261557  0.81616909  0.83606392    -0.27500
C1470       C  0.52406136  0.82640425  0.81115208     0.18500
C1471       C  0.56911468  0.88617721  0.80312547     0.12500
C1472       C  0.58919727  0.86373540  0.85353903    -0.11900
H1473       H  0.56043568  0.82080269  0.86835393     0.12800
C1474       C  0.50082057  0.81532304  0.79575085    -0.22700
H1475       H  0.53026364  0.85700698  0.78164555     0.08400
C1476       C  0.58959648  0.88556312  0.78389331     0.04700
C1477       C  0.60038909  0.90963574  0.77473448    -0.20000
C1478       C  0.59099627  0.93420280  0.78429986    -0.12200
C1479       C  0.57070792  0.93476586  0.80390964     0.13400
C1480       C  0.55982086  0.91066894  0.81283688    -0.22700
C1481       C  0.60009324  0.85953770  0.77321781    -0.05700
H1482       H  0.61602753  0.90931384  0.75979782     0.15000
C1483       C  0.56090364  0.96011030  0.81681808    -0.15900
H1484       H  0.54435324  0.91092779  0.82794470     0.09300
H1485       H  0.50805251  0.80678483  0.77663811     0.07200
H1486       H  0.48652943  0.83162426  0.79131035     0.08400
H1487       H  0.48951754  0.79989483  0.80663258     0.07400
H1488       H  0.58428895  0.88469932  0.85861400     0.02300
H1489       H  0.60735390  0.86332920  0.84087257     0.02800
H1490       H  0.59367351  0.85300490  0.87235184     0.06300
H1491       H  0.61627531  0.86262890  0.75841755     0.05200
H1492       H  0.58377877  0.84841131  0.76333019    -0.00500
H1493       H  0.60814908  0.84736280  0.78981091     0.01000
H1494       H  0.53943965  0.96289796  0.81236315     0.04600
H1495       H  0.57181354  0.97810345  0.81027014     0.06600
H1496       H  0.56344367  0.95864464  0.83874129     0.07400
C1497       C  0.40849474  0.78762770  0.95455683    -0.22200
C1498       C  0.38819078  0.79877303  0.93905534     0.09800
C1499       C  0.39028540  0.79827032  0.91107665     0.10200
C1500       C  0.41304158  0.78724978  0.89915972    -0.17100
C1501       C  0.43387591  0.77650286  0.91448638    -0.27500
C1502       C  0.43128018  0.77630847  0.94269753     0.18500
C1503       C  0.36505770  0.81143018  0.95240871     0.12500
C1504       C  0.36838893  0.80925108  0.89377569    -0.11900
H1505       H  0.41456044  0.78723002  0.87761979     0.12800
C1506       C  0.45224439  0.76444678  0.96056768    -0.22700
H1507       H  0.40652859  0.78798992  0.97606233     0.08400
C1508       C  0.34344956  0.79630878  0.96196056     0.04700
C1509       C  0.32143059  0.80940477  0.97330220    -0.20000
C1510       C  0.32033665  0.83738855  0.97501435    -0.12200
C1511       C  0.34237259  0.85247940  0.96559049     0.13400
C1512       C  0.36441252  0.83921021  0.95453280    -0.22700
C1513       C  0.34340092  0.76640164  0.95957044    -0.05700
H1514       H  0.30483555  0.79768420  0.98043335     0.15000
C1515       C  0.34307695  0.88249196  0.96686543    -0.15900
H1516       H  0.38119477  0.85058651  0.94704730     0.09300
H1517       H  0.44660643  0.76594014  0.98196346     0.07200
H1518       H  0.47135779  0.77516567  0.95790710     0.08400
H1519       H  0.45490067  0.74299852  0.95583539     0.07400
H1520       H  0.36566991  0.83083217  0.89780040     0.02300
H1521       H  0.34947963  0.79863362  0.89809229     0.02800
H1522       H  0.37293968  0.80679356  0.87225334     0.06300
H1523       H  0.32480267  0.75758242  0.96766964     0.05200
H1524       H  0.36046818  0.75794036  0.97078121    -0.00500
H1525       H  0.34514221  0.76060341  0.93829066     0.01000
H1526       H  0.36208090  0.89063089  0.95898262     0.04600
H1527       H  0.34111414  0.88920237  0.98787264     0.06600
H1528       H  0.32674320  0.89097122  0.95464789     0.07400
C1529       C  0.95245601  0.59374041  0.70423073    -0.22200
C1530       C  0.93580525  0.61576221  0.70041338     0.09800
C1531       C  0.90849007  0.61375726  0.70650398     0.10200
C1532       C  0.89843323  0.58964219  0.71637219    -0.17100
C1533       C  0.91490851  0.56720769  0.71982484    -0.27500
C1534       C  0.94239385  0.56925026  0.71319674     0.18500
C1535       C  0.94717837  0.63997053  0.68799673     0.12500
C1536       C  0.88996902  0.63703281  0.70252641    -0.11900
H1537       H  0.87747241  0.58833867  0.72137518     0.12800
C1538       C  0.96171661  0.54619140  0.71363699    -0.22700
H1539       H  0.97337164  0.59538338  0.69902594     0.08400
C1540       C  0.96073358  0.65934882  0.70303575     0.04700
C1541       C  0.97187396  0.68148638  0.69001855    -0.20000
C1542       C  0.97014770  0.68451275  0.66217164    -0.12200
C1543       C  0.95668148  0.66466933  0.64714549     0.13400
C1544       C  0.94527830  0.64281000  0.66034912    -0.22700
C1545       C  0.96341281  0.65659243  0.73278539    -0.05700
H1546       H  0.98212751  0.69640460  0.70169570     0.15000
C1547       C  0.95394474  0.66618066  0.61727882    -0.15900
H1548       H  0.93496604  0.62761817  0.64903471     0.09300
H1549       H  0.97646217  0.54924409  0.72979393     0.07200
H1550       H  0.97253470  0.54527638  0.69432101     0.08400
H1551       H  0.95227943  0.52650965  0.71602694     0.07400
H1552       H  0.88977818  0.64283887  0.68119116     0.02300
H1553       H  0.89677115  0.65419661  0.71468441     0.02800
H1554       H  0.86923627  0.63216441  0.70853672     0.06300
H1555       H  0.97452701  0.67353958  0.74160781     0.05200
H1556       H  0.97430785  0.63795034  0.73757936    -0.00500
H1557       H  0.94335260  0.65590470  0.74211532     0.01000
H1558       H  0.97394441  0.66568405  0.60781322     0.04600
H1559       H  0.94330767  0.68473149  0.61164126     0.06600
H1560       H  0.94242636  0.64913588  0.60917535     0.07400
C1561       C  0.03088152  0.85486739  0.69929913    -0.22200
C1562       C  0.05424472  0.86556940  0.68840062     0.09800
C1563       C  0.06541480  0.85411461  0.66528679     0.10200
C1564       C  0.05318570  0.83179906  0.65381966    -0.17100
C1565       C  0.02998020  0.82073212  0.66486411    -0.27500
C1566       C  0.01829625  0.83282418  0.68759411     0.18500
C1567       C  0.06650621  0.88906318  0.70126748     0.12500
C1568       C  0.09010796  0.86558281  0.65265611    -0.11900
H1569       H  0.06198614  0.82272154  0.63625545     0.12800
C1570       C  0.99204510  0.82409727  0.69930485    -0.22700
H1571       H  0.02212246  0.86413647  0.71677317     0.08400
C1572       C  0.05739489  0.91509248  0.69596929     0.04700
C1573       C  0.06995937  0.93677190  0.70828806    -0.20000
C1574       C  0.09147411  0.93299532  0.72569917    -0.12200
C1575       C  0.09997953  0.90674331  0.73171511     0.13400
C1576       C  0.08758619  0.88514787  0.71905966    -0.22700
C1577       C  0.03472884  0.91995616  0.67698350    -0.05700
H1578       H  0.06332600  0.95685013  0.70383348     0.15000
C1579       C  0.12111367  0.90049675  0.75209741    -0.15900
H1580       H  0.09417316  0.86501712  0.72337190     0.09300
H1581       H  0.97808898  0.84128118  0.69961123     0.07200
H1582       H  0.99509904  0.81710839  0.72005382     0.08400
H1583       H  0.98224671  0.80806379  0.68783169     0.07400
H1584       H  0.10687018  0.86487529  0.66701189     0.02300
H1585       H  0.08640715  0.88659022  0.64681970     0.02800
H1586       H  0.09610096  0.85433061  0.63453769     0.06300
H1587       H  0.03025486  0.94152761  0.67488819     0.05200
H1588       H  0.01649476  0.90987430  0.68437810    -0.00500
H1589       H  0.03991153  0.91198083  0.65699113     0.01000
H1590       H  0.11290095  0.88647578  0.76711828     0.04600
H1591       H  0.12814625  0.91815986  0.76318592     0.06600
H1592       H  0.13842894  0.89094622  0.74212907     0.07400
C1593       C  0.69527417  0.94966662  0.59274205    -0.22200
C1594       C  0.69723869  0.93593262  0.61690043     0.09800
C1595       C  0.70793435  0.90999850  0.61739498     0.10200
C1596       C  0.71702932  0.89853415  0.59359363    -0.17100
C1597       C  0.71507374  0.91214657  0.56920550    -0.27500
C1598       C  0.70343218  0.93792660  0.56871277     0.18500
C1599       C  0.68496565  0.94786002  0.64081043     0.12500
C1600       C  0.70920311  0.89424256  0.64291117    -0.11900
H1601       H  0.72572221  0.87876851  0.59405528     0.12800
C1602       C  0.69759434  0.95314189  0.54348008    -0.22700
H1603       H  0.68617108  0.96928081  0.59250892     0.08400
C1604       C  0.69966423  0.96318886  0.65907660     0.04700
C1605       C  0.68665019  0.97397869  0.68138017    -0.20000
C1606       C  0.65920903  0.97002441  0.68561249    -0.12200
C1607       C  0.64452320  0.95478214  0.66687512     0.13400
C1608       C  0.65771393  0.94388736  0.64479504    -0.22700
C1609       C  0.72891960  0.96835095  0.65487318    -0.05700
H1610       H  0.69798954  0.98570791  0.69546266     0.15000
C1611       C  0.61509237  0.94952787  0.66980603    -0.15900
H1612       H  0.64673072  0.93214214  0.63042556     0.09300
H1613       H  0.70974993  0.97159266  0.54294251     0.07200
H1614       H  0.67619928  0.95878951  0.54319203     0.08400
H1615       H  0.70120792  0.94161636  0.52506685     0.07400
H1616       H  0.68881298  0.89151490  0.65106025     0.02300
H1617       H  0.72150498  0.90492433  0.65779632     0.02800
H1618       H  0.71809905  0.87421856  0.63972644     0.06300
H1619       H  0.73733076  0.98101831  0.67092589     0.05200
H1620       H  0.73199469  0.97871518  0.63557727    -0.00500
H1621       H  0.74004814  0.94925013  0.65462158     0.01000
H1622       H  0.60390685  0.96860296  0.66916612     0.04600
H1623       H  0.61112819  0.93903647  0.68887204     0.06600
H1624       H  0.60735276  0.93678696  0.65346749     0.07400
C1625       C  0.59413354  0.79019150  0.44856873    -0.22200
C1626       C  0.61002510  0.80756631  0.43366167     0.09800
C1627       C  0.60365895  0.81289653  0.40686471     0.10200
C1628       C  0.58116470  0.80088743  0.39561230    -0.17100
C1629       C  0.56508273  0.78347925  0.41048599    -0.27500
C1630       C  0.57199226  0.77759659  0.43722530     0.18500
C1631       C  0.63398671  0.81900531  0.44619418     0.12500
C1632       C  0.62063807  0.83118177  0.39018577    -0.11900
H1633       H  0.57598255  0.80528880  0.37513126     0.12800
C1634       C  0.55768187  0.75722243  0.45406825    -0.22700
H1635       H  0.59954736  0.78582498  0.46902717     0.08400
C1636       C  0.63308486  0.84346185  0.45991324     0.04700
C1637       C  0.65656701  0.85369822  0.47097287    -0.20000
C1638       C  0.68084187  0.83984899  0.46889000    -0.12200
C1639       C  0.68162957  0.81525645  0.45493848     0.13400
C1640       C  0.65804957  0.80507986  0.44405369    -0.22700
C1641       C  0.60731832  0.85857216  0.46300412    -0.05700
H1642       H  0.65589464  0.87247001  0.48165184     0.15000
C1643       C  0.70681786  0.79960329  0.44992924    -0.15900
H1644       H  0.65851704  0.78634310  0.43327813     0.09300
H1645       H  0.54772290  0.76731156  0.47108753     0.07200
H1646       H  0.57235809  0.74269754  0.46200142     0.08400
H1647       H  0.54278962  0.74542114  0.44302504     0.07400
H1648       H  0.64121462  0.82316254  0.38886855     0.02300
H1649       H  0.62121229  0.85129710  0.39935432     0.02800
H1650       H  0.61277968  0.83322276  0.36962299     0.06300
H1651       H  0.61006865  0.87731041  0.47444482     0.05200
H1652       H  0.59257855  0.84607492  0.47376655    -0.00500
H1653       H  0.59926243  0.86378094  0.44310558     0.01000
H1654       H  0.70559598  0.78015336  0.46037614     0.04600
H1655       H  0.72514294  0.80993970  0.45627190     0.06600
H1656       H  0.70898302  0.79584497  0.42821930     0.07400
C1657       C  0.85060964  0.80643819  0.53568863    -0.22200
C1658       C  0.86175252  0.81852076  0.55821423     0.09800
C1659       C  0.84968076  0.84142925  0.56914316     0.10200
C1660       C  0.82636012  0.85149537  0.55755060    -0.17100
C1661       C  0.81494832  0.83937570  0.53507157    -0.27500
C1662       C  0.82764226  0.81684077  0.52358633     0.18500
C1663       C  0.88621494  0.80700609  0.57000479     0.12500
C1664       C  0.86146235  0.85523709  0.59301727    -0.11900
H1665       H  0.81688584  0.86890302  0.56619456     0.12800
C1666       C  0.81868675  0.80402422  0.49793405    -0.22700
H1667       H  0.86029700  0.78908816  0.52711820     0.08400
C1668       C  0.88486966  0.78726021  0.58990121     0.04700
C1669       C  0.90852390  0.77733130  0.60095552    -0.20000
C1670       C  0.93352974  0.78680662  0.59269279    -0.12200
C1671       C  0.93477363  0.80731481  0.57328964     0.13400
C1672       C  0.91106554  0.81672572  0.56183691    -0.22700
C1673       C  0.85844232  0.77677182  0.59948730    -0.05700
H1674       H  0.90749149  0.76186521  0.61599061     0.15000
C1675       C  0.96030828  0.82091585  0.56517415    -0.15900
H1676       H  0.91190028  0.83236543  0.54696191     0.09300
H1677       H  0.81200413  0.78333608  0.50193917     0.07200
H1678       H  0.83566282  0.80336668  0.48371415     0.08400
H1679       H  0.80250108  0.81490763  0.48777152     0.07400
H1680       H  0.88190715  0.86215855  0.58822317     0.02300
H1681       H  0.86233887  0.84127135  0.61012360     0.02800
H1682       H  0.84946509  0.87282476  0.59912843     0.06300
H1683       H  0.86090886  0.76145435  0.61524644     0.05200
H1684       H  0.84753188  0.76760845  0.58260266    -0.00500
H1685       H  0.84634257  0.79331399  0.60785600     0.01000
H1686       H  0.96438335  0.81700153  0.54377588     0.04600
H1687       H  0.97779596  0.81467873  0.57696416     0.06600
H1688       H  0.95817851  0.84274645  0.56814448     0.07400
C1689       C  0.81330432  0.90740931  0.39981008    -0.22200
C1690       C  0.80232425  0.93117767  0.39027816     0.09800
C1691       C  0.78104028  0.94329734  0.40402316     0.10200
C1692       C  0.77122224  0.93132705  0.42726715    -0.17100
C1693       C  0.78206748  0.90739521  0.43690711    -0.27500
C1694       C  0.80378617  0.89547714  0.42319412     0.18500
C1695       C  0.81412068  0.94345308  0.36630178     0.12500
C1696       C  0.76870604  0.96877436  0.39408534    -0.11900
H1697       H  0.75463735  0.94047844  0.43771974     0.12800
C1698       C  0.81839091  0.87106277  0.43292393    -0.22700
H1699       H  0.82994290  0.89845068  0.38922169     0.08400
C1700       C  0.83711991  0.95939837  0.36800507     0.04700
C1701       C  0.84796160  0.97024745  0.34468217    -0.20000
C1702       C  0.83655264  0.96516280  0.31968532    -0.12200
C1703       C  0.81392980  0.94837535  0.31796077     0.13400
C1704       C  0.80269008  0.93821200  0.34144801    -0.22700
C1705       C  0.85019900  0.96487670  0.39442657    -0.05700
H1706       H  0.86543502  0.98284132  0.34597326     0.15000
C1707       C  0.80197509  0.93930856  0.29194697    -0.15900
H1708       H  0.78536276  0.92542208  0.34032797     0.09300
H1709       H  0.84000698  0.87552987  0.43425713     0.07200
H1710       H  0.81553223  0.85448275  0.41856221     0.08400
H1711       H  0.81221935  0.86434535  0.45295910     0.07400
H1712       H  0.76038324  0.96559386  0.37386373     0.02300
H1713       H  0.78402868  0.98467367  0.39318824     0.02800
H1714       H  0.75232747  0.97569392  0.40731163     0.06300
H1715       H  0.86787398  0.97798112  0.39223167     0.05200
H1716       H  0.85686065  0.94586609  0.40353412    -0.00500
H1717       H  0.83582748  0.97483818  0.40802388     0.01000
H1718       H  0.80150794  0.91719315  0.29144557     0.04600
H1719       H  0.81334434  0.94568312  0.27418444     0.06600
H1720       H  0.78127324  0.94690738  0.29031224     0.07400
C1721       C  0.36110509  0.66079638  0.44670883    -0.22200
C1722       C  0.36379356  0.68840388  0.44941605     0.09800
C1723       C  0.34420322  0.70305469  0.46324165     0.10200
C1724       C  0.32205305  0.68969851  0.47378978    -0.17100
C1725       C  0.31901764  0.66196698  0.47099680    -0.27500
C1726       C  0.33912108  0.64727212  0.45744673     0.18500
C1727       C  0.38718950  0.70149570  0.43719150     0.12500
C1728       C  0.34685963  0.73269959  0.46715585    -0.11900
H1729       H  0.30695254  0.70112944  0.48433132     0.12800
C1730       C  0.33776403  0.61747516  0.45389666    -0.22700
H1731       H  0.37635577  0.64980035  0.43599585     0.08400
C1732       C  0.41282319  0.69903225  0.44830661     0.04700
C1733       C  0.43462119  0.71047226  0.43506369    -0.20000
C1734       C  0.43122063  0.72474617  0.41121305    -0.12200
C1735       C  0.40517399  0.72872760  0.40112815     0.13400
C1736       C  0.38364027  0.71634615  0.41386991    -0.22700
C1737       C  0.41713239  0.68462016  0.47426806    -0.05700
H1738       H  0.45429567  0.70789624  0.44308723     0.15000
C1739       C  0.39892129  0.74682282  0.37798245    -0.15900
H1740       H  0.36369915  0.71867966  0.40576260     0.09300
H1741       H  0.33759973  0.60756522  0.47366946     0.07200
H1742       H  0.35514817  0.60965140  0.44267828     0.08400
H1743       H  0.31955920  0.61206488  0.44256597     0.07400
H1744       H  0.34691233  0.74293951  0.44756343     0.02300
H1745       H  0.36574483  0.73713266  0.47771760     0.02800
H1746       H  0.33016165  0.74096058  0.47913421     0.06300
H1747       H  0.43832197  0.68518067  0.48049699     0.05200
H1748       H  0.41119065  0.66342787  0.47228231    -0.00500
H1749       H  0.40499770  0.69415785  0.49016782     0.01000
H1750       H  0.39069809  0.73492195  0.36125871     0.04600
H1751       H  0.41620360  0.75834121  0.37074367     0.06600
H1752       H  0.38375573  0.76169411  0.38429871     0.07400
C1753       C  0.11678610  0.72449871  0.58266317    -0.22200
C1754       C  0.11379224  0.70422425  0.56372628     0.09800
C1755       C  0.08803785  0.69588612  0.55638113     0.10200
C1756       C  0.06578187  0.70746311  0.56883101    -0.17100
C1757       C  0.06868917  0.72713708  0.58853067    -0.27500
C1758       C  0.09457897  0.73648983  0.59481076     0.18500
C1759       C  0.13795832  0.69130168  0.55264898     0.12500
C1760       C  0.08410081  0.67458552  0.53562302    -0.11900
H1761       H  0.04600771  0.70054532  0.56369339     0.12800
C1762       C  0.09971255  0.75965086  0.61325757    -0.22700
H1763       H  0.13665134  0.73115180  0.58786126     0.08400
C1764       C  0.15217076  0.70230793  0.53104243     0.04700
C1765       C  0.17515928  0.68928802  0.52161621    -0.20000
C1766       C  0.18436704  0.66568581  0.53355913    -0.12200
C1767       C  0.17052614  0.65528994  0.55590950     0.13400
C1768       C  0.14721029  0.66795717  0.56473290    -0.22700
C1769       C  0.14295849  0.72767300  0.51795824    -0.05700
H1770       H  0.18579956  0.69738448  0.50464748     0.15000
C1771       C  0.18026795  0.63182203  0.57196262    -0.15900
H1772       H  0.13648392  0.65993963  0.58171885     0.09300
H1773       H  0.11210290  0.77468961  0.60277653     0.07200
H1774       H  0.11066720  0.75261481  0.63110652     0.08400
H1775       H  0.08137496  0.77005095  0.61975050     0.07400
H1776       H  0.09370377  0.65578441  0.54219698     0.02300
H1777       H  0.09314353  0.68102898  0.51648055     0.02800
H1778       H  0.06266071  0.67050077  0.53211654     0.06300
H1779       H  0.15612426  0.73343308  0.50111114     0.05200
H1780       H  0.14299287  0.74414954  0.53272493    -0.00500
H1781       H  0.12246373  0.72504691  0.51014749     0.01000
H1782       H  0.18159757  0.63763510  0.59327349     0.04600
H1783       H  0.20033625  0.62477193  0.56619658     0.06600
H1784       H  0.16597165  0.61508023  0.57008234     0.07400
C1785       C  0.18758061  0.58829555  0.39795049    -0.22200
C1786       C  0.19703800  0.56289383  0.39128200     0.09800
C1787       C  0.21698382  0.55089900  0.40688233     0.10200
C1788       C  0.22731416  0.56478825  0.42880866    -0.17100
C1789       C  0.21826562  0.59051513  0.43537587    -0.27500
C1790       C  0.19788344  0.60231877  0.41981907     0.18500
C1791       C  0.18608984  0.54962397  0.36739501     0.12500
C1792       C  0.22725384  0.52344331  0.40039255    -0.11900
H1793       H  0.24272359  0.55558153  0.44071038     0.12800
C1794       C  0.18635997  0.62929339  0.42638030    -0.22700
H1795       H  0.17209638  0.59719314  0.38585348     0.08400
C1796       C  0.16187653  0.53553125  0.36833225     0.04700
C1797       C  0.15121899  0.52522794  0.34467711    -0.20000
C1798       C  0.16426313  0.52863102  0.32010035    -0.12200
C1799       C  0.18884756  0.54254315  0.31930763     0.13400
C1800       C  0.19950824  0.55258682  0.34309678    -0.22700
C1801       C  0.14733554  0.53138997  0.39428243    -0.05700
H1802       H  0.13259076  0.51443011  0.34537864     0.15000
C1803       C  0.20387669  0.54863381  0.29396903    -0.15900
H1804       H  0.21802733  0.56361720  0.34258230     0.09300
H1805       H  0.16964523  0.63460408  0.41289382     0.07200
H1806       H  0.20186085  0.64486001  0.42413068     0.08400
H1807       H  0.17855667  0.62934584  0.44708898     0.07400
H1808       H  0.23612731  0.52331400  0.38012969     0.02300
H1809       H  0.21062242  0.50890126  0.40114637     0.02800
H1810       H  0.24275709  0.51688673  0.41472365     0.06300
H1811       H  0.12885858  0.51959601  0.39154326     0.05200
H1812       H  0.14178234  0.55093563  0.40303140    -0.00500
H1813       H  0.16036879  0.52051372  0.40845690     0.01000
H1814       H  0.20734195  0.57043850  0.29260528     0.04600
H1815       H  0.19326504  0.54286279  0.27561483     0.06600
H1816       H  0.22346160  0.53835069  0.29432347     0.07400
C1817       C  0.33443081  0.53082378  0.63356326    -0.22200
C1818       C  0.31209322  0.54730286  0.63669629     0.09800
C1819       C  0.30087576  0.55080914  0.66225440     0.10200
C1820       C  0.31302900  0.53874802  0.68434446    -0.17100
C1821       C  0.33607153  0.52309396  0.68146916    -0.27500
C1822       C  0.34621786  0.51812853  0.65552137     0.18500
C1823       C  0.30103651  0.56120854  0.61308874     0.12500
C1824       C  0.27650622  0.56789002  0.66627472    -0.11900
H1825       H  0.30498072  0.54230849  0.70409330     0.12800
C1826       C  0.36861834  0.49883900  0.64996357    -0.22700
H1827       H  0.34256637  0.52764658  0.61377380     0.08400
C1828       C  0.31248780  0.58498981  0.60348828     0.04700
C1829       C  0.30098706  0.59792237  0.58155146    -0.20000
C1830       C  0.27802107  0.58788425  0.56918769    -0.12200
C1831       C  0.26590393  0.56456819  0.57961745     0.13400
C1832       C  0.27800991  0.55120695  0.60099410    -0.22700
C1833       C  0.33661588  0.59690068  0.61667013    -0.05700
H1834       H  0.31016577  0.61589778  0.57384337     0.15000
C1835       C  0.23952924  0.55392085  0.57002897    -0.15900
H1836       H  0.26891324  0.53329494  0.60889929     0.09300
H1837       H  0.38623248  0.50983894  0.64236968     0.07200
H1838       H  0.36217906  0.48431715  0.63457138     0.08400
H1839       H  0.37449244  0.48697064  0.66756579     0.07400
H1840       H  0.25955875  0.55948932  0.65488776     0.02300
H1841       H  0.28053508  0.58846080  0.65923260     0.02800
H1842       H  0.27056249  0.56892263  0.68757884     0.06300
H1843       H  0.34278156  0.61580187  0.60696918     0.05200
H1844       H  0.35356272  0.58272835  0.61550697    -0.00500
H1845       H  0.33210095  0.60122324  0.63790743     0.01000
H1846       H  0.24245457  0.53396845  0.56091748     0.04600
H1847       H  0.22941174  0.56703582  0.55555123     0.06600
H1848       H  0.22574863  0.55195465  0.58726270     0.07400
loop_ 
_geom_bond_atom_site_label_1 
_geom_bond_atom_site_label_2 
_geom_bond_distance 
_geom_bond_site_symmetry_2 
_ccdc_geom_bond_type 
In1           O3   2.254       .  S
In1           O4   2.246       .  S
In1          O12   2.238       .  S
In1           O6   2.259       .  S
In1           O8   2.249       .  S
In1           O9   2.242       .  S
In1          O10   2.242       .  S
In1          O13   2.246       .  S
C2            O8   1.261       .  A
C2           O10   1.258       .  A
C2         C1725   1.488       .  S
O3           C11   1.261       .  A
O4           C11   1.259       .  A
C5           O12   1.259       .  A
C5            O6   1.261       .  A
C5         C1766   1.480       .  S
C7            O9   1.260       .  A
C7           O13   1.260       .  A
C7         C1789   1.483       .  S
C11        C1830   1.482       .  S
In14         O16   2.238       .  S
In14         O17   2.253       .  S
In14         O25   2.238       .  S
In14         O19   2.241       .  S
In14         O21   2.239       .  S
In14         O22   2.245       .  S
In14         O23   2.234       .  S
In14         O26   2.240       .  S
C15          O21   1.262       .  A
C15          O23   1.260       .  A
C15        C1693   1.476       .  S
O16          C24   1.259       .  A
O17          C24   1.262       .  A
C18          O25   1.261       .  A
C18          O19   1.260       .  A
C18        C1597   1.478       .  S
C20          O22   1.262       .  A
C20          O26   1.261       .  A
C20        C1638   1.478       .  S
C24        C1661   1.480       .  S
In27         O29   2.249       .  S
In27         O30   2.248       .  S
In27         O38   2.244   1_455  S
In27         O32   2.258   1_455  S
In27         O34   2.254       .  S
In27         O35   2.252   1_455  S
In27         O36   2.236       .  S
In27         O39   2.248   1_455  S
C28          O34   1.262       .  A
C28          O36   1.260       .  A
C28        C1565   1.477       .  S
O29          C37   1.261       .  A
O30          C37   1.261       .  A
C31          O38   1.259       .  A
C31          O32   1.262       .  A
C31        C1542   1.492       .  S
C33          O35   1.260       .  A
C33          O39   1.259       .  A
C33        C1670   1.480       .  S
C37        C1757   1.481       .  S
In40         O42   2.243       .  S
In40         O43   2.257       .  S
In40         O51   2.243       .  S
In40         O45   2.243       .  S
In40         O47   2.254       .  S
In40         O48   2.244       .  S
In40         O49   2.241       .  S
In40         O52   2.242       .  S
C41          O47   1.259       .  A
C41          O49   1.259       .  A
C41        C1469   1.478       .  S
O42          C50   1.260       .  A
O43          C50   1.259       .  A
C44          O51   1.261       .  A
C44          O45   1.260       .  A
C44        C1437   1.488       .  S
C46          O48   1.261       .  A
C46          O52   1.261       .  A
C46        C1405   1.480       .  S
C50        C1501   1.491       .  S
In53         O55   2.222   1_545  S
In53         O56   2.242   1_545  S
In53         O64   2.236       .  S
In53         O58   2.236       .  S
In53         O60   2.239   1_545  S
In53         O61   2.238       .  S
In53         O62   2.234   1_545  S
In53         O65   2.229       .  S
C54          O60   1.262       .  A
C54          O62   1.260       .  A
C54        C1478   1.470       .  S
O55          C63   1.259       .  A
O56          C63   1.263       .  A
C57          O64   1.261       .  A
C57          O58   1.260       .  A
C57        C1341   1.485       .  S
C59          O61   1.262       .  A
C59          O65   1.259       .  A
C59        C1373   1.483       .  S
C63        C1606   1.483       .  S
In66         O68   2.249       .  S
In66         O69   2.249       .  S
In66         O77   2.245   1_556  S
In66         O71   2.253   1_556  S
In66         O73   2.261       .  S
In66         O74   2.258   1_556  S
In66         O75   2.243       .  S
In66         O78   2.239   1_556  S
C67          O73   1.262       .  A
C67          O75   1.259       .  A
C67        C1309   1.493       .  S
O68          C76   1.260       .  A
O69          C76   1.261       .  A
C70          O77   1.259       .  A
C70          O71   1.262       .  A
C70        C1245   1.490       .  S
C72          O74   1.261       .  A
C72          O78   1.260       .  A
C72        C1277   1.480       .  S
C76        C1414   1.482       .  S
In79         O81   2.242       .  S
In79         O82   2.244       .  S
In79         O90   2.239       .  S
In79         O84   2.255       .  S
In79         O86   2.249       .  S
In79         O87   2.240       .  S
In79         O88   2.241       .  S
In79         O91   2.235       .  S
C80          O86   1.262       .  A
C80          O88   1.261       .  A
C80        C1181   1.480       .  S
O81          C89   1.261       .  A
O82          C89   1.259       .  A
C83          O90   1.259       .  A
C83          O84   1.262       .  A
C83        C1318   1.480       .  S
C85          O87   1.260       .  A
C85          O91   1.261       .  A
C85        C1222   1.481       .  S
C89        C1533   1.485       .  S
In92         O94   2.233       .  S
In92         O95   2.242       .  S
In92        O103   2.232       .  S
In92         O97   2.239       .  S
In92         O99   2.245       .  S
In92        O100   2.245       .  S
In92        O101   2.241       .  S
In92        O104   2.233       .  S
C93          O99   1.261       .  A
C93         O101   1.260       .  A
C93        C1254   1.477       .  S
O94         C102   1.260       .  A
O95         C102   1.262       .  A
C96         O103   1.260       .  A
C96          O97   1.262       .  A
C96        C1094   1.472       .  S
C98         O100   1.261       .  A
C98         O104   1.259       .  A
C98        C1126   1.473       .  S
C102       C1149   1.474       .  S
In105       O107   2.227       .  S
In105       O108   2.247       .  S
In105       O116   2.244       .  S
In105       O110   2.238       .  S
In105       O112   2.242       .  S
In105       O113   2.227       .  S
In105       O114   2.234       .  S
In105       O117   2.224       .  S
C106        O112   1.262       .  A
C106        O114   1.260       .  A
C106       C1053   1.477       .  S
O107        C115   1.260       .  A
O108        C115   1.261       .  A
C109        O116   1.261       .  A
C109        O110   1.261       .  A
C109       C1021   1.481       .  S
C111        O113   1.263       .  A
C111        O117   1.260       .  A
C111        C989   1.470       .  S
C115       C1158   1.473       .  S
In118       O120   2.229       .  S
In118       O121   2.237       .  S
In118       O129   2.238       .  S
In118       O123   2.241       .  S
In118       O125   2.238   1_545  S
In118       O126   2.237   1_545  S
In118       O127   2.234   1_545  S
In118       O130   2.239   1_545  S
C119        O125   1.262       .  A
C119        O127   1.259       .  A
C119        C934   1.475       .  S
O120        C128   1.260       .  A
O121        C128   1.261       .  A
C122        O129   1.260       .  A
C122        O123   1.262       .  A
C122        C902   1.486       .  S
C124        O126   1.260       .  A
C124        O130   1.260       .  A
C124        C966   1.473       .  S
C128        C998   1.472       .  S
In131       O133   2.238       .  S
In131       O134   2.238       .  S
In131       O142   2.229       .  S
In131       O136   2.253       .  S
In131       O138   2.235       .  S
In131       O139   2.237       .  S
In131       O140   2.242       .  S
In131       O143   2.242       .  S
C132        O138   1.261       .  A
C132        O140   1.261       .  A
C132       C1117   1.472       .  S
O133        C141   1.259       .  A
O134        C141   1.259       .  A
C135        O142   1.258       .  A
C135        O136   1.260       .  A
C135        C957   1.474       .  S
C137        O139   1.259       .  A
C137        O143   1.261       .  A
C137       C1734   1.477       .  S
C141       C1629   1.474       .  S
In144       O146   2.237   1_554  S
In144       O147   2.242   1_554  S
In144       O155   2.250   1_554  S
In144       O149   2.241   1_554  S
In144       O151   2.238       .  S
In144       O152   2.236       .  S
In144       O153   2.237       .  S
In144       O156   2.233       .  S
C145        O151   1.260       .  A
C145        O153   1.261       .  A
C145       C1062   1.484       .  S
O146        C154   1.260       .  A
O147        C154   1.260       .  A
C148        O155   1.260       .  A
C148        O149   1.260       .  A
C148        C870   1.475       .  S
C150        O152   1.262       .  A
C150        O156   1.261       .  A
C150        C829   1.473       .  S
C154       C1382   1.482       .  S
In157       O159   2.232   1_455  S
In157       O160   2.246   1_455  S
In157       O168   2.251       .  S
In157       O162   2.238       .  S
In157       O164   2.249   1_455  S
In157       O165   2.239       .  S
In157       O166   2.242   1_455  S
In157       O169   2.237       .  S
C158        O164   1.260       .  A
C158        O166   1.260       .  A
C158        C861   1.477       .  S
O159        C167   1.258       .  A
O160        C167   1.261       .  A
C161        O168   1.261       .  A
C161        O162   1.261       .  A
C161        C774   1.478       .  S
C163        O165   1.261       .  A
C163        O169   1.261       .  A
C163        C806   1.475       .  S
C167       C1213   1.480       .  S
In170       O172   2.229   1_554  S
In170       O173   2.253   1_554  S
In170       O181   2.236       .  S
In170       O175   2.239       .  S
In170       O177   2.245   1_554  S
In170       O178   2.247       .  S
In170       O179   2.236   1_554  S
In170       O182   2.237       .  S
C171        O177   1.261       .  A
C171        O179   1.261       .  A
C171        C733   1.475       .  S
O172        C180   1.259       .  A
O173        C180   1.264       .  A
C174        O181   1.259       .  A
C174        O175   1.261       .  A
C174        C925   1.481       .  S
C176        O178   1.261       .  A
C176        O182   1.259       .  A
C176        C710   1.473       .  S
C180       C1510   1.489       .  S
In183       O185   2.247       .  S
In183       O186   2.245       .  S
In183       O194   2.243       .  S
In183       O188   2.243       .  S
In183       O190   2.243   1_565  S
In183       O191   2.257   1_565  S
In183       O192   2.242   1_565  S
In183       O195   2.237   1_565  S
C184        O190   1.260       .  A
C184        O192   1.260       .  A
C184        C797   1.476       .  S
O185        C193   1.260       .  A
O186        C193   1.261       .  A
C187        O194   1.260       .  A
C187        O188   1.260       .  A
C187       C1574   1.476       .  S
C189        O191   1.261       .  A
C189        O195   1.259       .  A
C189        C678   1.479       .  S
C193        C742   1.479       .  S
In196       O198   2.234       .  S
In196       O199   2.242       .  S
In196       O207   2.238   1_565  S
In196       O201   2.250   1_565  S
In196       O203   2.246       .  S
In196       O204   2.242   1_565  S
In196       O205   2.237       .  S
In196       O208   2.240   1_565  S
C197        O203   1.261       .  A
C197        O205   1.260       .  A
C197        C646   1.478       .  S
O198        C206   1.260       .  A
O199        C206   1.261       .  A
C200        O207   1.259       .  A
C200        O201   1.261       .  A
C200        C614   1.488       .  S
C202        O204   1.260       .  A
C202        O208   1.261       .  A
C202        C838   1.477       .  S
C206       C1702   1.474       .  S
In209       O211   2.246       .  S
In209       O212   2.239       .  S
In209       O220   2.240       .  S
In209       O214   2.247       .  S
In209       O216   2.251   1_455  S
In209       O217   2.242   1_455  S
In209       O218   2.234   1_455  S
In209       O221   2.240   1_455  S
C210        O216   1.262       .  A
C210        O218   1.260       .  A
C210        C637   1.478       .  S
O211        C219   1.261       .  A
O212        C219   1.260       .  A
C213        O220   1.258       .  A
C213        O214   1.262       .  A
C213        C582   1.489       .  S
C215        O217   1.261       .  A
C215        O221   1.261       .  A
C215       C1286   1.481       .  S
C219        C701   1.477       .  S
In222       O224   2.240       .  S
In222       O225   2.247       .  S
In222       O233   2.235       .  S
In222       O227   2.248       .  S
In222       O229   2.248       .  S
In222       O230   2.238       .  S
In222       O231   2.236       .  S
In222       O234   2.241       .  S
C223        O229   1.262       .  A
C223        O231   1.258       .  A
C223        C573   1.488       .  S
O224        C232   1.260       .  A
O225        C232   1.260       .  A
C226        O233   1.260       .  A
C226        O227   1.262       .  A
C226        C550   1.479       .  S
C228        O230   1.261       .  A
C228        O234   1.261       .  A
C228        C509   1.477       .  S
C232       C1798   1.478       .  S
In235       O237   2.239       .  S
In235       O238   2.249       .  S
In235       O246   2.245       .  S
In235       O240   2.254       .  S
In235       O242   2.250       .  S
In235       O243   2.250       .  S
In235       O244   2.249       .  S
In235       O247   2.247       .  S
C236        O242   1.261       .  A
C236        O244   1.260       .  A
C236        C477   1.483       .  S
O237        C245   1.260       .  A
O238        C245   1.260       .  A
C239        O246   1.260       .  A
C239        O240   1.262       .  A
C239       C1821   1.483       .  S
C241        O243   1.260       .  A
C241        O247   1.260       .  A
C241       C1446   1.483       .  S
C245        C445   1.479       .  S
In248       O250   2.242       .  S
In248       O251   2.249       .  S
In248       O259   2.245       .  S
In248       O253   2.247       .  S
In248       O255   2.252   1_554  S
In248       O256   2.251   1_554  S
In248       O257   2.238   1_554  S
In248       O260   2.241   1_554  S
C249        O255   1.261       .  A
C249        O257   1.260       .  A
C249        C765   1.482       .  S
O250        C258   1.260       .  A
O251        C258   1.262       .  A
C252        O259   1.261       .  A
C252        O253   1.260       .  A
C252       C1030   1.488       .  S
C254        O256   1.261       .  A
C254        O260   1.259       .  A
C254        C486   1.482       .  S
C258        C518   1.482       .  S
In261       O263   2.236       .  S
In261       O264   2.245       .  S
In261       O272   2.236       .  S
In261       O266   2.259       .  S
In261       O268   2.244       .  S
In261       O269   2.239       .  S
In261       O270   2.240       .  S
In261       O273   2.248       .  S
C262        O268   1.262       .  A
C262        O270   1.260       .  A
C262        C669   1.478       .  S
O263        C271   1.260       .  A
O264        C271   1.261       .  A
C265        O272   1.259       .  A
C265        O266   1.262       .  A
C265        C893   1.480       .  S
C267        O269   1.260       .  A
C267        O273   1.261       .  A
C267        C413   1.473       .  S
C271        C381   1.474       .  S
In274       O276   2.238   1_655  S
In274       O277   2.251   1_655  S
In274       O285   2.235   1_655  S
In274       O279   2.253   1_655  S
In274       O281   2.246       .  S
In274       O282   2.247       .  S
In274       O283   2.236       .  S
In274       O286   2.236       .  S
C275        O281   1.263       .  A
C275        O283   1.259       .  A
C275        C605   1.488       .  S
O276        C284   1.260       .  A
O277        C284   1.262       .  A
C278        O285   1.260       .  A
C278        O279   1.262       .  A
C278        C541   1.486       .  S
C280        O282   1.262       .  A
C280        O286   1.260       .  A
C280        C358   1.479       .  S
C284        C422   1.477       .  S
In287       O289   2.240       .  S
In287       O290   2.251       .  S
In287       O298   2.233       .  S
In287       O292   2.244       .  S
In287       O294   2.243       .  S
In287       O295   2.253       .  S
In287       O296   2.239       .  S
In287       O299   2.237       .  S
C288        O294   1.261       .  A
C288        O296   1.261       .  A
C288       C1190   1.477       .  S
O289        C297   1.259       .  A
O290        C297   1.263       .  A
C291        O298   1.259       .  A
C291        O292   1.261       .  A
C291       C1085   1.470       .  S
C293        O295   1.263       .  A
C293        O299   1.261       .  A
C293        C349   1.480       .  S
C297        C326   1.488       .  S
In300       O302   2.243       .  S
In300       O303   2.245       .  S
In300       O311   2.242       .  S
In300       O305   2.242       .  S
In300       O307   2.239       .  S
In300       O308   2.244       .  S
In300       O309   2.242       .  S
In300       O312   2.239       .  S
C301        O307   1.260       .  A
C301        O309   1.260       .  A
C301        C454   1.475       .  S
O302        C310   1.261       .  A
O303        C310   1.261       .  A
C304        O311   1.260       .  A
C304        O305   1.259       .  A
C304       C1350   1.478       .  S
C306        O308   1.260       .  A
C306        O312   1.259       .  A
C306        C390   1.474       .  S
C310        C317   1.478       .  S
C313        C314   1.400       .  A
C313        C318   1.404       .  A
C313        H323   1.083       .  S
C314        C319   1.480       .  S
C314        C315   1.409       .  A
C315        C316   1.403       .  A
C315        C320   1.506       .  S
C316        C317   1.405       .  A
C316        H321   1.083       .  S
C317        C318   1.419       .  A
C318        C322   1.509       .  S
C319        C324   1.408       .  A
C319        C328   1.399       .  A
C320        H336   1.110       .  S
C320        H337   1.110       .  S
C320        H338   1.110       .  S
C322        H333   1.110       .  S
C322        H334   1.111       .  S
C322        H335   1.105       .  S
C324        C325   1.403       .  A
C324        C329   1.506       .  S
C325        C326   1.407       .  A
C325        H330   1.084       .  S
C326        C327   1.421       .  A
C327        C328   1.405       .  A
C327        C331   1.508       .  S
C328        H332   1.085       .  S
C329        H339   1.111       .  S
C329        H340   1.110       .  S
C329        H341   1.110       .  S
C331        H342   1.110       .  S
C331        H343   1.111       .  S
C331        H344   1.110       .  S
C345        C346   1.401       .  A
C345        C350   1.405       .  A
C345        H355   1.084       .  S
C346        C351   1.482       .  S
C346        C347   1.410       .  A
C347        C348   1.402       .  A
C347        C352   1.507       .  S
C348        C349   1.405       .  A
C348        H353   1.085       .  S
C349        C350   1.419       .  A
C350        C354   1.508       .  S
C351        C356   1.410       .  A
C351        C360   1.400       .  A
C352        H368   1.110       .  S
C352        H369   1.110       .  S
C352        H370   1.111       .  S
C354        H365   1.110       .  S
C354        H366   1.111       .  S
C354        H367   1.105       .  S
C356        C357   1.404       .  A
C356        C361   1.506       .  S
C357        C358   1.405       .  A
C357        H362   1.085       .  S
C358        C359   1.419       .  A
C359        C360   1.402       .  A
C359        C363   1.509       .  S
C360        H364   1.085       .  S
C361        H371   1.111       .  S
C361        H372   1.110       .  S
C361        H373   1.110       .  S
C363        H374   1.110       .  S
C363        H375   1.105       .  S
C363        H376   1.111       .  S
C377        C378   1.399       .  A
C377        C382   1.402       .  A
C377        H387   1.084       .  S
C378        C383   1.477       .  S
C378        C379   1.410       .  A
C379        C380   1.403       .  A
C379        C384   1.507       .  S
C380        C381   1.404       .  A
C380        H385   1.084       .  S
C381        C382   1.417       .  A
C382        C386   1.509       .  S
C383        C388   1.409       .  A
C383        C392   1.400       .  A
C384        H400   1.110       .  S
C384        H401   1.110       .  S
C384        H402   1.111       .  S
C386        H397   1.110       .  S
C386        H398   1.111       .  S
C386        H399   1.106       .  S
C388        C389   1.401       .  A
C388        C393   1.506       .  S
C389        C390   1.404       .  A
C389        H394   1.085       .  S
C390        C391   1.419       .  A
C391        C392   1.403       .  A
C391        C395   1.509       .  S
C392        H396   1.085       .  S
C393        H403   1.111       .  S
C393        H404   1.110       .  S
C393        H405   1.110       .  S
C395        H406   1.110       .  S
C395        H407   1.105       .  S
C395        H408   1.111       .  S
C409        C410   1.400       .  A
C409        C414   1.402       .  A
C409        H419   1.084       .  S
C410        C415   1.479       .  S
C410        C411   1.410       .  A
C411        C412   1.404       .  A
C411        C416   1.506       .  S
C412        C413   1.404       .  A
C412        H417   1.085       .  S
C413        C414   1.417       .  A
C414        C418   1.509       .  S
C415        C420   1.410       .  A
C415        C424   1.399       .  A
C416        H432   1.110       .  S
C416        H433   1.110       .  S
C416        H434   1.111       .  S
C418        H429   1.110       .  S
C418        H430   1.111       .  S
C418        H431   1.106       .  S
C420        C421   1.405       .  A
C420        C425   1.506       .  S
C421        C422   1.405       .  A
C421        H426   1.084       .  S
C422        C423   1.418       .  A
C423        C424   1.402       .  A
C423        C427   1.509       .  S
C424        H428   1.085       .  S
C425        H435   1.111       .  S
C425        H436   1.110       .  S
C425        H437   1.110       .  S
C427        H438   1.110       .  S
C427        H439   1.106       .  S
C427        H440   1.111       .  S
C441        C442   1.400       .  A
C441        C446   1.404       .  A
C441        H451   1.084       .  S
C442        C447   1.477       .  S
C442        C443   1.408       .  A
C443        C444   1.401       .  A
C443        C448   1.507       .  S
C444        C445   1.406       .  A
C444        H449   1.084       .  S
C445        C446   1.420       .  A
C446        C450   1.508       .  S
C447        C452   1.409       .  A
C447        C456   1.399       .  A
C448        H464   1.110       .  S
C448        H465   1.110       .  S
C448        H466   1.111       .  S
C450        H461   1.110       .  S
C450        H462   1.111       .  S
C450        H463   1.105       .  S
C452        C453   1.402       .  A
C452        C457   1.506       .  S
C453        C454   1.405       .  A
C453        H458   1.084       .  S
C454        C455   1.418       .  A
C455        C456   1.402       .  A
C455        C459   1.509       .  S
C456        H460   1.084       .  S
C457        H467   1.111       .  S
C457        H468   1.110       .  S
C457        H469   1.110       .  S
C459        H470   1.110       .  S
C459        H471   1.105       .  S
C459        H472   1.111       .  S
C473        C474   1.401       .  A
C473        C478   1.405       .  A
C473        H483   1.084       .  S
C474        C479   1.482       .  S
C474        C475   1.409       .  A
C475        C476   1.403       .  A
C475        C480   1.507       .  S
C476        C477   1.406       .  A
C476        H481   1.084       .  S
C477        C478   1.420       .  A
C478        C482   1.508       .  S
C479        C484   1.410       .  A
C479        C488   1.400       .  A
C480        H496   1.110       .  S
C480        H497   1.110       .  S
C480        H498   1.111       .  S
C482        H493   1.111       .  S
C482        H494   1.110       .  S
C482        H495   1.105       .  S
C484        C485   1.404       .  A
C484        C489   1.506       .  S
C485        C486   1.406       .  A
C485        H490   1.084       .  S
C486        C487   1.420       .  A
C487        C488   1.403       .  A
C487        C491   1.509       .  S
C488        H492   1.084       .  S
C489        H499   1.111       .  S
C489        H500   1.110       .  S
C489        H501   1.110       .  S
C491        H502   1.111       .  S
C491        H503   1.105       .  S
C491        H504   1.110       .  S
C505        C506   1.400       .  A
C505        C510   1.403       .  A
C505        H515   1.085       .  S
C506        C511   1.479       .  S
C506        C507   1.409       .  A
C507        C508   1.402       .  A
C507        C512   1.507       .  S
C508        C509   1.405       .  A
C508        H513   1.085       .  S
C509        C510   1.419       .  A
C510        C514   1.509       .  S
C511        C516   1.408       .  A
C511        C520   1.399       .  A
C512        H528   1.110       .  S
C512        H529   1.110       .  S
C512        H530   1.111       .  S
C514        H525   1.110       .  S
C514        H526   1.111       .  S
C514        H527   1.105       .  S
C516        C517   1.404       .  A
C516        C521   1.506       .  S
C517        C518   1.407       .  A
C517        H522   1.084       .  S
C518        C519   1.420       .  A
C519        C520   1.402       .  A
C519        C523   1.509       .  S
C520        H524   1.084       .  S
C521        H531   1.111       .  S
C521        H532   1.110       .  S
C521        H533   1.110       .  S
C523        H534   1.110       .  S
C523        H535   1.105       .  S
C523        H536   1.111       .  S
C537        C538   1.400       .  A
C537        C542   1.406       .  A
C537        H547   1.090       .  S
C538        C543   1.480       .  S
C538        C539   1.408       .  A
C539        C540   1.401       .  A
C539        C544   1.507       .  S
C540        C541   1.406       .  A
C540        H545   1.083       .  S
C541        C542   1.419       .  A
C542        C546   1.507       .  S
C543        C548   1.408       .  A
C543        C552   1.400       .  A
C544        H560   1.110       .  S
C544        H561   1.110       .  S
C544        H562   1.110       .  S
C546        H557   1.111       .  S
C546        H558   1.110       .  S
C546        H559   1.111   1_455  S
C548        C549   1.402       .  A
C548        C553   1.506       .  S
C549        C550   1.406       .  A
C549        H554   1.085       .  S
C550        C551   1.419       .  A
C551        C552   1.403       .  A
C551        C555   1.509       .  S
C552        H556   1.088       .  S
C553        H563   1.111       .  S
C553        H564   1.110       .  S
C553        H565   1.110       .  S
C555        H566   1.110       .  S
C555        H567   1.105       .  S
C555        H568   1.111       .  S
C569        C570   1.399       .  A
C569        C574   1.404       .  A
C569        H579   1.078       .  S
C570        C575   1.477       .  S
C570        C571   1.407       .  A
C571        C572   1.402       .  A
C571        C576   1.507       .  S
C572        C573   1.407       .  A
C572        H577   1.089       .  S
C573        C574   1.422       .  A
C574        C578   1.508       .  S
C575        C580   1.408       .  A
C575        C584   1.399       .  A
C576        H592   1.109       .  S
C576        H593   1.109       .  S
C576        H594   1.113       .  S
C578        H589   1.109       .  S
C578        H590   1.112       .  S
C578        H591   1.111       .  S
C580        C581   1.400       .  A
C580        C585   1.507       .  S
C581        C582   1.406       .  A
C581        H586   1.091       .  S
C582        C583   1.422       .  A
C583        C584   1.406       .  A
C583        C587   1.508       .  S
C584        H588   1.081       .  S
C585        H595   1.111       .  S
C585        H596   1.110       .  S
C585        H597   1.109       .  S
C587        H598   1.110       .  S
C587        H599   1.111       .  S
C587        H600   1.111       .  S
C601        C602   1.399       .  A
C601        C606   1.405       .  A
C601        H611   1.083       .  S
C602        C607   1.479       .  S
C602        C603   1.408       .  A
C603        C604   1.402       .  A
C603        C608   1.507       .  S
C604        C605   1.407       .  A
C604        H609   1.080       .  S
C605        C606   1.422       .  A
C606        C610   1.508       .  S
C607        C612   1.408       .  A
C607        C616   1.398       .  A
C608        H624   1.112       .  S
C608        H625   1.111       .  S
C608        H626   1.108       .  S
C610        H621   1.110       .  S
C610        H622   1.112       .  S
C610        H623   1.109       .  S
C612        C613   1.404       .  A
C612        C617   1.506       .  S
C613        C614   1.408       .  A
C613        H618   1.084       .  S
C614        C615   1.421       .  A
C615        C616   1.403       .  A
C615        C619   1.508       .  S
C616        H620   1.084       .  S
C617        H627   1.112       .  S
C617        H628   1.110       .  S
C617        H629   1.109       .  S
C619        H630   1.111       .  S
C619        H631   1.111       .  S
C619        H632   1.109       .  S
C633        C634   1.401       .  A
C633        C638   1.405       .  A
C633        H643   1.085       .  S
C634        C639   1.479       .  S
C634        C635   1.408       .  A
C635        C636   1.401       .  A
C635        C640   1.507       .  S
C636        C637   1.405       .  A
C636        H641   1.083       .  S
C637        C638   1.420       .  A
C638        C642   1.509       .  S
C639        C644   1.409       .  A
C639        C648   1.399       .  A
C640        H656   1.110       .  S
C640        H657   1.110       .  S
C640        H658   1.111       .  S
C642        H653   1.111       .  S
C642        H654   1.110       .  S
C642        H655   1.105       .  S
C644        C645   1.402       .  A
C644        C649   1.507       .  S
C645        C646   1.405       .  A
C645        H650   1.084       .  S
C646        C647   1.420       .  A
C647        C648   1.403       .  A
C647        C651   1.509       .  S
C648        H652   1.084       .  S
C649        H659   1.111       .  S
C649        H660   1.110       .  S
C649        H661   1.110       .  S
C651        H662   1.111       .  S
C651        H663   1.104       .  S
C651        H664   1.110       .  S
C665        C666   1.399       .  A
C665        C670   1.403       .  A
C665        H675   1.085       .  S
C666        C671   1.478       .  S
C666        C667   1.409       .  A
C667        C668   1.402       .  A
C667        C672   1.506       .  S
C668        C669   1.405       .  A
C668        H673   1.084       .  S
C669        C670   1.420       .  A
C670        C674   1.509       .  S
C671        C676   1.410       .  A
C671        C680   1.398       .  A
C672        H688   1.110       .  S
C672        H689   1.110       .  S
C672        H690   1.111       .  S
C674        H685   1.111       .  S
C674        H686   1.110       .  S
C674        H687   1.105       .  S
C676        C677   1.405       .  A
C676        C681   1.506       .  S
C677        C678   1.406       .  A
C677        H682   1.084       .  S
C678        C679   1.419       .  A
C679        C680   1.401       .  A
C679        C683   1.509       .  S
C680        H684   1.085       .  S
C681        H691   1.111       .  S
C681        H692   1.110       .  S
C681        H693   1.110       .  S
C683        H694   1.111       .  S
C683        H695   1.106       .  S
C683        H696   1.110       .  S
C697        C698   1.399       .  A
C697        C702   1.401       .  A
C697        H707   1.085       .  S
C698        C703   1.478       .  S
C698        C699   1.409       .  A
C699        C700   1.403       .  A
C699        C704   1.506       .  S
C700        C701   1.405       .  A
C700        H705   1.085       .  S
C701        C702   1.418       .  A
C702        C706   1.509       .  S
C703        C708   1.410       .  A
C703        C712   1.400       .  A
C704        H720   1.110       .  S
C704        H721   1.110       .  S
C704        H722   1.111       .  S
C706        H717   1.111       .  S
C706        H718   1.110       .  S
C706        H719   1.105       .  S
C708        C709   1.402       .  A
C708        C713   1.506       .  S
C709        C710   1.403       .  A
C709        H714   1.084       .  S
C710        C711   1.417       .  A
C711        C712   1.402       .  A
C711        C715   1.509       .  S
C712        H716   1.086       .  S
C713        H723   1.111       .  S
C713        H724   1.110       .  S
C713        H725   1.110       .  S
C715        H726   1.111   1_554  S
C715        H727   1.106   1_554  S
C715        H728   1.110       .  S
C729        C730   1.400       .  A
C729        C734   1.403       .  A
C729        H739   1.085       .  S
C730        C735   1.480       .  S
C730        C731   1.410       .  A
C731        C732   1.403       .  A
C731        C736   1.506       .  S
C732        C733   1.404       .  A
C732        H737   1.085       .  S
C733        C734   1.417       .  A
C734        C738   1.509       .  S
C735        C740   1.409       .  A
C735        C744   1.400       .  A
C736        H752   1.110       .  S
C736        H753   1.110       .  S
C736        H754   1.111       .  S
C738        H749   1.111       .  S
C738        H750   1.110       .  S
C738        H751   1.107       .  S
C740        C741   1.403       .  A
C740        C745   1.506       .  S
C741        C742   1.405       .  A
C741        H746   1.084       .  S
C742        C743   1.419       .  A
C743        C744   1.404       .  A
C743        C747   1.509       .  S
C744        H748   1.086       .  S
C745        H755   1.111       .  S
C745        H756   1.110       .  S
C745        H757   1.110       .  S
C747        H758   1.111       .  S
C747        H759   1.105       .  S
C747        H760   1.110       .  S
C761        C762   1.401       .  A
C761        C766   1.406       .  A
C761        H771   1.084       .  S
C762        C767   1.482       .  S
C762        C763   1.410       .  A
C763        C764   1.401       .  A
C763        C768   1.507       .  S
C764        C765   1.405       .  A
C764        H769   1.084       .  S
C765        C766   1.421       .  A
C766        C770   1.509   1_556  S
C767        C772   1.410       .  A
C767        C776   1.400       .  A
C768        H784   1.110       .  S
C768        H785   1.110       .  S
C768        H786   1.111       .  S
C770        H781   1.110   1_554  S
C770        H782   1.111       .  S
C770        H783   1.104       .  S
C772        C773   1.405       .  A
C772        C777   1.506       .  S
C773        C774   1.405       .  A
C773        H778   1.084       .  S
C774        C775   1.418       .  A
C775        C776   1.402       .  A
C775        C779   1.509       .  S
C776        H780   1.085       .  S
C777        H787   1.111       .  S
C777        H788   1.110       .  S
C777        H789   1.110       .  S
C779        H790   1.110       .  S
C779        H791   1.106       .  S
C779        H792   1.111       .  S
C793        C794   1.400       .  A
C793        C798   1.402       .  A
C793        H803   1.084       .  S
C794        C799   1.477       .  S
C794        C795   1.409       .  A
C795        C796   1.402       .  A
C795        C800   1.506       .  S
C796        C797   1.404       .  A
C796        H801   1.085       .  S
C797        C798   1.418       .  A
C798        C802   1.509       .  S
C799        C804   1.409       .  A
C799        C808   1.400       .  A
C800        H816   1.110       .  S
C800        H817   1.110       .  S
C800        H818   1.111       .  S
C802        H813   1.110       .  S
C802        H814   1.111       .  S
C802        H815   1.106       .  S
C804        C805   1.401       .  A
C804        C809   1.506       .  S
C805        C806   1.404       .  A
C805        H810   1.085       .  S
C806        C807   1.418       .  A
C807        C808   1.402       .  A
C807        C811   1.508   1_455  S
C808        H812   1.085       .  S
C809        H819   1.111       .  S
C809        H820   1.110       .  S
C809        H821   1.110       .  S
C811        H822   1.110       .  S
C811        H823   1.106       .  S
C811        H824   1.111       .  S
C825        C826   1.399       .  A
C825        C830   1.401       .  A
C825        H835   1.085       .  S
C826        C831   1.475       .  S
C826        C827   1.409       .  A
C827        C828   1.401       .  A
C827        C832   1.506       .  S
C828        C829   1.404       .  A
C828        H833   1.084       .  S
C829        C830   1.418       .  A
C830        C834   1.509       .  S
C831        C836   1.408       .  A
C831        C840   1.399       .  A
C832        H848   1.110       .  S
C832        H849   1.110       .  S
C832        H850   1.111       .  S
C834        H845   1.110       .  S
C834        H846   1.111       .  S
C834        H847   1.106       .  S
C836        C837   1.401       .  A
C836        C841   1.507       .  S
C837        C838   1.405       .  A
C837        H842   1.084       .  S
C838        C839   1.420       .  A
C839        C840   1.403       .  A
C839        C843   1.509   1_545  S
C840        H844   1.085       .  S
C841        H851   1.111       .  S
C841        H852   1.110       .  S
C841        H853   1.110       .  S
C843        H854   1.110       .  S
C843        H855   1.105       .  S
C843        H856   1.111       .  S
C857        C858   1.401       .  A
C857        C862   1.405       .  A
C857        H867   1.085       .  S
C858        C863   1.481       .  S
C858        C859   1.410       .  A
C859        C860   1.401       .  A
C859        C864   1.507       .  S
C860        C861   1.404       .  A
C860        H865   1.084       .  S
C861        C862   1.418       .  A
C862        C866   1.508       .  S
C863        C868   1.411       .  A
C863        C872   1.400       .  A
C864        H880   1.110       .  S
C864        H881   1.110       .  S
C864        H882   1.111       .  S
C866        H877   1.110       .  S
C866        H878   1.111       .  S
C866        H879   1.106       .  S
C868        C869   1.404       .  A
C868        C873   1.506       .  S
C869        C870   1.404       .  A
C869        H874   1.085       .  S
C870        C871   1.417       .  A
C871        C872   1.402       .  A
C871        C875   1.509       .  S
C872        H876   1.085       .  S
C873        H883   1.111   1_556  S
C873        H884   1.110       .  S
C873        H885   1.110       .  S
C875        H886   1.110       .  S
C875        H887   1.106       .  S
C875        H888   1.111       .  S
C889        C890   1.400       .  A
C889        C894   1.402       .  A
C889        H899   1.085       .  S
C890        C895   1.482       .  S
C890        C891   1.411       .  A
C891        C892   1.405       .  A
C891        C896   1.507       .  S
C892        C893   1.405       .  A
C892        H897   1.084       .  S
C893        C894   1.418       .  A
C894        C898   1.508       .  S
C895        C900   1.409       .  A
C895        C904   1.400       .  A
C896        H912   1.110       .  S
C896        H913   1.110       .  S
C896        H914   1.111       .  S
C898        H909   1.111       .  S
C898        H910   1.110       .  S
C898        H911   1.106       .  S
C900        C901   1.402       .  A
C900        C905   1.507       .  S
C901        C902   1.407       .  A
C901        H906   1.084       .  S
C902        C903   1.420       .  A
C903        C904   1.405       .  A
C903        C907   1.508       .  S
C904        H908   1.085       .  S
C905        H915   1.111       .  S
C905        H916   1.110       .  S
C905        H917   1.110       .  S
C907        H918   1.111       .  S
C907        H919   1.111       .  S
C907        H920   1.110       .  S
C921        C922   1.399       .  A
C921        C926   1.403       .  A
C921        H931   1.083       .  S
C922        C927   1.474       .  S
C922        C923   1.407       .  A
C923        C924   1.401       .  A
C923        C928   1.507       .  S
C924        C925   1.406       .  A
C924        H929   1.083       .  S
C925        C926   1.419       .  A
C926        C930   1.508       .  S
C927        C932   1.408       .  A
C927        C936   1.399       .  A
C928        H944   1.110       .  S
C928        H945   1.109       .  S
C928        H946   1.112       .  S
C930        H941   1.112       .  S
C930        H942   1.110       .  S
C930        H943   1.110       .  S
C932        C933   1.401       .  A
C932        C937   1.507       .  S
C933        C934   1.405       .  A
C933        H938   1.077       .  S
C934        C935   1.419       .  A
C935        C936   1.402       .  A
C935        C939   1.509       .  S
C936        H940   1.088       .  S
C937        H947   1.110       .  S
C937        H948   1.110       .  S
C937        H949   1.110       .  S
C939        H950   1.111       .  S
C939        H951   1.105   1_565  S
C939        H952   1.111   1_565  S
C953        C954   1.399       .  A
C953        C958   1.399       .  A
C953        H963   1.085       .  S
C954        C959   1.476       .  S
C954        C955   1.410       .  A
C955        C956   1.404       .  A
C955        C960   1.506       .  S
C956        C957   1.404       .  A
C956        H961   1.084       .  S
C957        C958   1.417       .  A
C958        C962   1.509       .  S
C959        C964   1.410       .  A
C959        C968   1.399       .  A
C960        H976   1.110       .  S
C960        H977   1.110       .  S
C960        H978   1.111       .  S
C962        H973   1.110       .  S
C962        H974   1.111       .  S
C962        H975   1.107       .  S
C964        C965   1.401       .  A
C964        C969   1.507       .  S
C965        C966   1.403       .  A
C965        H970   1.085       .  S
C966        C967   1.417       .  A
C967        C968   1.401       .  A
C967        C971   1.508       .  S
C968        H972   1.084       .  S
C969        H979   1.111       .  S
C969        H980   1.110       .  S
C969        H981   1.110       .  S
C971        H982   1.110       .  S
C971        H983   1.106       .  S
C971        H984   1.111       .  S
C985        C986   1.399       .  A
C985        C990   1.400       .  A
C985        H995   1.085       .  S
C986        C991   1.472       .  S
C986        C987   1.408       .  A
C987        C988   1.398       .  A
C987        C992   1.507       .  S
C988        C989   1.403       .  A
C988        H993   1.085       .  S
C989        C990   1.419       .  A
C990        C994   1.510       .  S
C991        C996   1.407       .  A
C991       C1000   1.399       .  A
C992       H1008   1.110       .  S
C992       H1009   1.110       .  S
C992       H1010   1.111       .  S
C994       H1005   1.110       .  S
C994       H1006   1.111       .  S
C994       H1007   1.105       .  S
C996        C997   1.399       .  A
C996       C1001   1.507       .  S
C997        C998   1.405       .  A
C997       H1002   1.085       .  S
C998        C999   1.417       .  A
C999       C1000   1.400       .  A
C999       C1003   1.508       .  S
C1000      H1004   1.085       .  S
C1001      H1011   1.111       .  S
C1001      H1012   1.110       .  S
C1001      H1013   1.110       .  S
C1003      H1014   1.110       .  S
C1003      H1015   1.105       .  S
C1003      H1016   1.111       .  S
C1017      C1018   1.399       .  A
C1017      C1022   1.403       .  A
C1017      H1027   1.085       .  S
C1018      C1023   1.480       .  S
C1018      C1019   1.409       .  A
C1019      C1020   1.403       .  A
C1019      C1024   1.507       .  S
C1020      C1021   1.406       .  A
C1020      H1025   1.086       .  S
C1021      C1022   1.419       .  A
C1022      C1026   1.509       .  S
C1023      C1028   1.408       .  A
C1023      C1032   1.400       .  A
C1024      H1040   1.110       .  S
C1024      H1041   1.110       .  S
C1024      H1042   1.111       .  S
C1026      H1037   1.111       .  S
C1026      H1038   1.110       .  S
C1026      H1039   1.105       .  S
C1028      C1029   1.402       .  A
C1028      C1033   1.507       .  S
C1029      C1030   1.407       .  A
C1029      H1034   1.083       .  S
C1030      C1031   1.420       .  A
C1031      C1032   1.406       .  A
C1031      C1035   1.507       .  S
C1032      H1036   1.085       .  S
C1033      H1043   1.111       .  S
C1033      H1044   1.110       .  S
C1033      H1045   1.110       .  S
C1035      H1046   1.112       .  S
C1035      H1047   1.110   1_554  S
C1035      H1048   1.109       .  S
C1049      C1050   1.399       .  A
C1049      C1054   1.402       .  A
C1049      H1059   1.081       .  S
C1050      C1055   1.476       .  S
C1050      C1051   1.408       .  A
C1051      C1052   1.401       .  A
C1051      C1056   1.507       .  S
C1052      C1053   1.406       .  A
C1052      H1057   1.084       .  S
C1053      C1054   1.419       .  A
C1054      C1058   1.509       .  S
C1055      C1060   1.408       .  A
C1055      C1064   1.399       .  A
C1056      H1072   1.109       .  S
C1056      H1073   1.110       .  S
C1056      H1074   1.112       .  S
C1058      H1069   1.111       .  S
C1058      H1070   1.110       .  S
C1058      H1071   1.105       .  S
C1060      C1061   1.401       .  A
C1060      C1065   1.507       .  S
C1061      C1062   1.408       .  A
C1061      H1066   1.082       .  S
C1062      C1063   1.420       .  A
C1063      C1064   1.403       .  A
C1063      C1067   1.507       .  S
C1064      H1068   1.083       .  S
C1065      H1075   1.111       .  S
C1065      H1076   1.110       .  S
C1065      H1077   1.110       .  S
C1067      H1078   1.111       .  S
C1067      H1079   1.110       .  S
C1067      H1080   1.110       .  S
C1081      C1082   1.400       .  A
C1081      C1086   1.402       .  A
C1081      H1091   1.085       .  S
C1082      C1087   1.475       .  S
C1082      C1083   1.408       .  A
C1083      C1084   1.401       .  A
C1083      C1088   1.506       .  S
C1084      C1085   1.404       .  A
C1084      H1089   1.084       .  S
C1085      C1086   1.416       .  A
C1086      C1090   1.508       .  S
C1087      C1092   1.409       .  A
C1087      C1096   1.399       .  A
C1088      H1104   1.110       .  S
C1088      H1105   1.110       .  S
C1088      H1106   1.111       .  S
C1090      H1101   1.111       .  S
C1090      H1102   1.110       .  S
C1090      H1103   1.106       .  S
C1092      C1093   1.400       .  A
C1092      C1097   1.507       .  S
C1093      C1094   1.404       .  A
C1093      H1098   1.084       .  S
C1094      C1095   1.417       .  A
C1095      C1096   1.402       .  A
C1095      C1099   1.508       .  S
C1096      H1100   1.085       .  S
C1097      H1107   1.111       .  S
C1097      H1108   1.110       .  S
C1097      H1109   1.110       .  S
C1099      H1110   1.111       .  S
C1099      H1111   1.105       .  S
C1099      H1112   1.110       .  S
C1113      C1114   1.399       .  A
C1113      C1118   1.400       .  A
C1113      H1123   1.085       .  S
C1114      C1119   1.475       .  S
C1114      C1115   1.409       .  A
C1115      C1116   1.403       .  A
C1115      C1120   1.506       .  S
C1116      C1117   1.404       .  A
C1116      H1121   1.084       .  S
C1117      C1118   1.417       .  A
C1118      C1122   1.509       .  S
C1119      C1124   1.409       .  A
C1119      C1128   1.399       .  A
C1120      H1136   1.110       .  S
C1120      H1137   1.110       .  S
C1120      H1138   1.111       .  S
C1122      H1133   1.110       .  S
C1122      H1134   1.111       .  S
C1122      H1135   1.106       .  S
C1124      C1125   1.403       .  A
C1124      C1129   1.506       .  S
C1125      C1126   1.404       .  A
C1125      H1130   1.084       .  S
C1126      C1127   1.418       .  A
C1127      C1128   1.401       .  A
C1127      C1131   1.510       .  S
C1128      H1132   1.085       .  S
C1129      H1139   1.111       .  S
C1129      H1140   1.110       .  S
C1129      H1141   1.110       .  S
C1131      H1142   1.110       .  S
C1131      H1143   1.106       .  S
C1131      H1144   1.111       .  S
C1145      C1146   1.399       .  A
C1145      C1150   1.401       .  A
C1145      H1155   1.085       .  S
C1146      C1151   1.475       .  S
C1146      C1147   1.408       .  A
C1147      C1148   1.402       .  A
C1147      C1152   1.506       .  S
C1148      C1149   1.405       .  A
C1148      H1153   1.084       .  S
C1149      C1150   1.418       .  A
C1150      C1154   1.509       .  S
C1151      C1156   1.408       .  A
C1151      C1160   1.400       .  A
C1152      H1168   1.110       .  S
C1152      H1169   1.110       .  S
C1152      H1170   1.111       .  S
C1154      H1165   1.111       .  S
C1154      H1166   1.110       .  S
C1154      H1167   1.106       .  S
C1156      C1157   1.399       .  A
C1156      C1161   1.507       .  S
C1157      C1158   1.403       .  A
C1157      H1162   1.085       .  S
C1158      C1159   1.418       .  A
C1159      C1160   1.404       .  A
C1159      C1163   1.508       .  S
C1160      H1164   1.084       .  S
C1161      H1171   1.111       .  S
C1161      H1172   1.110       .  S
C1161      H1173   1.110       .  S
C1163      H1174   1.111       .  S
C1163      H1175   1.105       .  S
C1163      H1176   1.110       .  S
C1177      C1178   1.400       .  A
C1177      C1182   1.403       .  A
C1177      H1187   1.084       .  S
C1178      C1183   1.478       .  S
C1178      C1179   1.409       .  A
C1179      C1180   1.403       .  A
C1179      C1184   1.507       .  S
C1180      C1181   1.406       .  A
C1180      H1185   1.084       .  S
C1181      C1182   1.419       .  A
C1182      C1186   1.508       .  S
C1183      C1188   1.409       .  A
C1183      C1192   1.400       .  A
C1184      H1200   1.110       .  S
C1184      H1201   1.109       .  S
C1184      H1202   1.111       .  S
C1186      H1197   1.110       .  S
C1186      H1198   1.111       .  S
C1186      H1199   1.105       .  S
C1188      C1189   1.402       .  A
C1188      C1193   1.507       .  S
C1189      C1190   1.405       .  A
C1189      H1194   1.084       .  S
C1190      C1191   1.419       .  A
C1191      C1192   1.403       .  A
C1191      C1195   1.509       .  S
C1192      H1196   1.085       .  S
C1193      H1203   1.111       .  S
C1193      H1204   1.110       .  S
C1193      H1205   1.109       .  S
C1195      H1206   1.110       .  S
C1195      H1207   1.105       .  S
C1195      H1208   1.111       .  S
C1209      C1210   1.398       .  A
C1209      C1214   1.401       .  A
C1209      H1219   1.091       .  S
C1210      C1215   1.476       .  S
C1210      C1211   1.408       .  A
C1211      C1212   1.402       .  A
C1211      C1216   1.506       .  S
C1212      C1213   1.406       .  A
C1212      H1217   1.083       .  S
C1213      C1214   1.419       .  A
C1214      C1218   1.508       .  S
C1215      C1220   1.408       .  A
C1215      C1224   1.400       .  A
C1216      H1232   1.110       .  S
C1216      H1233   1.110       .  S
C1216      H1234   1.111       .  S
C1218      H1229   1.112       .  S
C1218      H1230   1.110   1_655  S
C1218      H1231   1.109       .  S
C1220      C1221   1.400       .  A
C1220      C1225   1.507       .  S
C1221      C1222   1.405       .  A
C1221      H1226   1.082       .  S
C1222      C1223   1.419       .  A
C1223      C1224   1.405       .  A
C1223      C1227   1.507       .  S
C1224      H1228   1.079       .  S
C1225      H1235   1.110       .  S
C1225      H1236   1.110       .  S
C1225      H1237   1.110       .  S
C1227      H1238   1.110       .  S
C1227      H1239   1.110       .  S
C1227      H1240   1.111       .  S
C1241      C1242   1.400       .  A
C1241      C1246   1.406       .  A
C1241      H1251   1.078       .  S
C1242      C1247   1.482       .  S
C1242      C1243   1.409       .  A
C1243      C1244   1.404       .  A
C1243      C1248   1.506       .  S
C1244      C1245   1.407       .  A
C1244      H1249   1.085       .  S
C1245      C1246   1.421       .  A
C1246      C1250   1.508       .  S
C1247      C1252   1.410       .  A
C1247      C1256   1.401       .  A
C1248      H1264   1.110       .  S
C1248      H1265   1.110       .  S
C1248      H1266   1.111       .  S
C1250      H1261   1.111       .  S
C1250      H1262   1.111       .  S
C1250      H1263   1.110       .  S
C1252      C1253   1.404       .  A
C1252      C1257   1.506       .  S
C1253      C1254   1.405       .  A
C1253      H1258   1.084       .  S
C1254      C1255   1.418       .  A
C1255      C1256   1.403       .  A
C1255      C1259   1.509       .  S
C1256      H1260   1.082       .  S
C1257      H1267   1.112       .  S
C1257      H1268   1.110       .  S
C1257      H1269   1.110       .  S
C1259      H1270   1.111       .  S
C1259      H1271   1.106       .  S
C1259      H1272   1.110       .  S
C1273      C1274   1.399       .  A
C1273      C1278   1.402       .  A
C1273      H1283   1.084       .  S
C1274      C1279   1.480       .  S
C1274      C1275   1.410       .  A
C1275      C1276   1.406       .  A
C1275      C1280   1.506       .  S
C1276      C1277   1.406       .  A
C1276      H1281   1.082       .  S
C1277      C1278   1.418       .  A
C1278      C1282   1.509       .  S
C1279      C1284   1.409       .  A
C1279      C1288   1.400       .  A
C1280      H1296   1.110       .  S
C1280      H1297   1.110       .  S
C1280      H1298   1.111       .  S
C1282      H1293   1.110       .  S
C1282      H1294   1.111   1_554  S
C1282      H1295   1.106   1_554  S
C1284      C1285   1.402       .  A
C1284      C1289   1.506       .  S
C1285      C1286   1.406       .  A
C1285      H1290   1.084       .  S
C1286      C1287   1.420       .  A
C1287      C1288   1.404       .  A
C1287      C1291   1.509       .  S
C1288      H1292   1.083       .  S
C1289      H1299   1.111       .  S
C1289      H1300   1.110       .  S
C1289      H1301   1.110       .  S
C1291      H1302   1.110       .  S
C1291      H1303   1.105       .  S
C1291      H1304   1.111       .  S
C1305      C1306   1.399       .  A
C1305      C1310   1.405       .  A
C1305      H1315   1.082       .  S
C1306      C1311   1.483       .  S
C1306      C1307   1.409       .  A
C1307      C1308   1.407       .  A
C1307      C1312   1.506       .  S
C1308      C1309   1.409       .  A
C1308      H1313   1.080       .  S
C1309      C1310   1.422       .  A
C1310      C1314   1.508       .  S
C1311      C1316   1.410       .  A
C1311      C1320   1.401       .  A
C1312      H1328   1.111       .  S
C1312      H1329   1.111       .  S
C1312      H1330   1.110       .  S
C1314      H1325   1.111       .  S
C1314      H1326   1.110       .  S
C1314      H1327   1.110       .  S
C1316      C1317   1.404       .  A
C1316      C1321   1.506       .  S
C1317      C1318   1.404       .  A
C1317      H1322   1.083       .  S
C1318      C1319   1.420       .  A
C1319      C1320   1.405       .  A
C1319      C1323   1.509       .  S
C1320      H1324   1.078       .  S
C1321      H1331   1.110       .  S
C1321      H1332   1.110       .  S
C1321      H1333   1.110       .  S
C1323      H1334   1.110       .  S
C1323      H1335   1.107       .  S
C1323      H1336   1.110       .  S
C1337      C1338   1.398       .  A
C1337      C1342   1.403       .  A
C1337      H1347   1.083       .  S
C1338      C1343   1.476       .  S
C1338      C1339   1.408       .  A
C1339      C1340   1.401       .  A
C1339      C1344   1.507       .  S
C1340      C1341   1.408       .  A
C1340      H1345   1.083       .  S
C1341      C1342   1.420       .  A
C1342      C1346   1.507       .  S
C1343      C1348   1.409       .  A
C1343      C1352   1.399       .  A
C1344      H1360   1.110       .  S
C1344      H1361   1.110       .  S
C1344      H1362   1.111       .  S
C1346      H1357   1.110       .  S
C1346      H1358   1.111       .  S
C1346      H1359   1.110       .  S
C1348      C1349   1.401       .  A
C1348      C1353   1.507       .  S
C1349      C1350   1.405       .  A
C1349      H1354   1.084       .  S
C1350      C1351   1.421       .  A
C1351      C1352   1.403       .  A
C1351      C1355   1.509       .  S
C1352      H1356   1.084       .  S
C1353      H1363   1.111       .  S
C1353      H1364   1.110       .  S
C1353      H1365   1.110       .  S
C1355      H1366   1.110       .  S
C1355      H1367   1.104       .  S
C1355      H1368   1.111       .  S
C1369      C1370   1.398       .  A
C1369      C1374   1.402       .  A
C1369      H1379   1.082       .  S
C1370      C1375   1.474       .  S
C1370      C1371   1.407       .  A
C1371      C1372   1.401       .  A
C1371      C1376   1.506       .  S
C1372      C1373   1.407       .  A
C1372      H1377   1.081       .  S
C1373      C1374   1.421       .  A
C1374      C1378   1.508       .  S
C1375      C1380   1.407       .  A
C1375      C1384   1.398       .  A
C1376      H1392   1.110       .  S
C1376      H1393   1.111       .  S
C1376      H1394   1.110       .  S
C1378      H1389   1.111       .  S
C1378      H1390   1.111       .  S
C1378      H1391   1.110       .  S
C1380      C1381   1.401       .  A
C1380      C1385   1.507       .  S
C1381      C1382   1.407       .  A
C1381      H1386   1.086       .  S
C1382      C1383   1.419       .  A
C1383      C1384   1.403       .  A
C1383      C1387   1.507       .  S
C1384      H1388   1.085       .  S
C1385      H1395   1.111       .  S
C1385      H1396   1.110       .  S
C1385      H1397   1.110       .  S
C1387      H1398   1.112       .  S
C1387      H1399   1.109       .  S
C1387      H1400   1.110       .  S
C1401      C1402   1.402       .  A
C1401      C1406   1.404       .  A
C1401      H1411   1.084       .  S
C1402      C1407   1.483       .  S
C1402      C1403   1.410       .  A
C1403      C1404   1.403       .  A
C1403      C1408   1.506       .  S
C1404      C1405   1.405       .  A
C1404      H1409   1.084       .  S
C1405      C1406   1.419       .  A
C1406      C1410   1.509       .  S
C1407      C1412   1.410       .  A
C1407      C1416   1.401       .  A
C1408      H1424   1.110       .  S
C1408      H1425   1.110       .  S
C1408      H1426   1.111       .  S
C1410      H1421   1.111       .  S
C1410      H1422   1.110       .  S
C1410      H1423   1.106       .  S
C1412      C1413   1.404       .  A
C1412      C1417   1.507       .  S
C1413      C1414   1.405       .  A
C1413      H1418   1.084       .  S
C1414      C1415   1.420       .  A
C1415      C1416   1.404       .  A
C1415      C1419   1.509       .  S
C1416      H1420   1.085       .  S
C1417      H1427   1.111       .  S
C1417      H1428   1.110       .  S
C1417      H1429   1.110       .  S
C1419      H1430   1.111   1_556  S
C1419      H1431   1.105   1_556  S
C1419      H1432   1.110       .  S
C1433      C1434   1.399       .  A
C1433      C1438   1.405       .  A
C1433      H1443   1.087       .  S
C1434      C1439   1.480       .  S
C1434      C1435   1.408       .  A
C1435      C1436   1.402       .  A
C1435      C1440   1.507       .  S
C1436      C1437   1.407       .  A
C1436      H1441   1.085       .  S
C1437      C1438   1.421       .  A
C1438      C1442   1.508       .  S
C1439      C1444   1.408       .  A
C1439      C1448   1.399       .  A
C1440      H1456   1.110       .  S
C1440      H1457   1.110       .  S
C1440      H1458   1.111       .  S
C1442      H1453   1.112       .  S
C1442      H1454   1.110       .  S
C1442      H1455   1.110       .  S
C1444      C1445   1.402       .  A
C1444      C1449   1.507       .  S
C1445      C1446   1.406       .  A
C1445      H1450   1.084       .  S
C1446      C1447   1.421       .  A
C1447      C1448   1.404       .  A
C1447      C1451   1.509       .  S
C1448      H1452   1.086       .  S
C1449      H1459   1.111       .  S
C1449      H1460   1.110       .  S
C1449      H1461   1.110       .  S
C1451      H1462   1.111       .  S
C1451      H1463   1.104       .  S
C1451      H1464   1.110       .  S
C1465      C1466   1.400       .  A
C1465      C1470   1.404       .  A
C1465      H1475   1.084       .  S
C1466      C1471   1.478       .  S
C1466      C1467   1.408       .  A
C1467      C1468   1.401       .  A
C1467      C1472   1.507       .  S
C1468      C1469   1.405       .  A
C1468      H1473   1.084       .  S
C1469      C1470   1.420       .  A
C1470      C1474   1.508       .  S
C1471      C1476   1.409       .  A
C1471      C1480   1.401       .  A
C1472      H1488   1.110       .  S
C1472      H1489   1.110       .  S
C1472      H1490   1.111       .  S
C1474      H1485   1.110       .  S
C1474      H1486   1.111       .  S
C1474      H1487   1.105       .  S
C1476      C1477   1.402       .  A
C1476      C1481   1.506       .  S
C1477      C1478   1.404       .  A
C1477      H1482   1.084       .  S
C1478      C1479   1.415       .  A
C1479      C1480   1.401       .  A
C1479      C1483   1.509       .  S
C1480      H1484   1.084       .  S
C1481      H1491   1.111       .  S
C1481      H1492   1.110       .  S
C1481      H1493   1.110       .  S
C1483      H1494   1.110       .  S
C1483      H1495   1.107       .  S
C1483      H1496   1.111       .  S
C1497      C1498   1.400       .  A
C1497      C1502   1.407       .  A
C1497      H1507   1.084       .  S
C1498      C1503   1.482       .  S
C1498      C1499   1.408       .  A
C1499      C1500   1.401       .  A
C1499      C1504   1.507       .  S
C1500      C1501   1.407       .  A
C1500      H1505   1.084       .  S
C1501      C1502   1.422       .  A
C1502      C1506   1.507       .  S
C1503      C1508   1.408       .  A
C1503      C1512   1.399       .  A
C1504      H1520   1.110       .  S
C1504      H1521   1.110       .  S
C1504      H1522   1.110       .  S
C1506      H1517   1.112       .  S
C1506      H1518   1.109       .  S
C1506      H1519   1.110       .  S
C1508      C1509   1.405       .  A
C1508      C1513   1.506       .  S
C1509      C1510   1.408       .  A
C1509      H1514   1.081       .  S
C1510      C1511   1.422       .  A
C1511      C1512   1.404       .  A
C1511      C1515   1.508       .  S
C1512      H1516   1.085       .  S
C1513      H1523   1.110       .  S
C1513      H1524   1.111       .  S
C1513      H1525   1.110       .  S
C1515      H1526   1.111       .  S
C1515      H1527   1.111       .  S
C1515      H1528   1.110       .  S
C1529      C1530   1.399       .  A
C1529      C1534   1.404       .  A
C1529      H1539   1.085       .  S
C1530      C1535   1.481       .  S
C1530      C1531   1.408       .  A
C1531      C1532   1.403       .  A
C1531      C1536   1.506       .  S
C1532      C1533   1.408       .  A
C1532      H1537   1.084       .  S
C1533      C1534   1.423       .  A
C1534      C1538   1.510       .  S
C1535      C1540   1.408       .  A
C1535      C1544   1.399       .  A
C1536      H1552   1.110       .  S
C1536      H1553   1.110       .  S
C1536      H1554   1.111       .  S
C1538      H1549   1.110       .  S
C1538      H1550   1.111       .  S
C1538      H1551   1.103       .  S
C1540      C1541   1.406       .  A
C1540      C1545   1.506       .  S
C1541      C1542   1.409       .  A
C1541      H1546   1.082       .  S
C1542      C1543   1.422       .  A
C1543      C1544   1.404       .  A
C1543      C1547   1.508       .  S
C1544      H1548   1.084       .  S
C1545      H1555   1.111       .  S
C1545      H1556   1.110       .  S
C1545      H1557   1.110       .  S
C1547      H1558   1.110       .  S
C1547      H1559   1.110       .  S
C1547      H1560   1.111       .  S
C1561      C1562   1.401       .  A
C1561      C1566   1.404       .  A
C1561      H1571   1.084       .  S
C1562      C1567   1.480       .  S
C1562      C1563   1.409       .  A
C1563      C1564   1.402       .  A
C1563      C1568   1.506       .  S
C1564      C1565   1.405       .  A
C1564      H1569   1.085       .  S
C1565      C1566   1.417       .  A
C1566      C1570   1.508   1_455  S
C1567      C1572   1.410       .  A
C1567      C1576   1.400       .  A
C1568      H1584   1.110       .  S
C1568      H1585   1.110       .  S
C1568      H1586   1.111       .  S
C1570      H1581   1.111       .  S
C1570      H1582   1.110       .  S
C1570      H1583   1.106       .  S
C1572      C1573   1.403       .  A
C1572      C1577   1.506       .  S
C1573      C1574   1.404       .  A
C1573      H1578   1.085       .  S
C1574      C1575   1.418       .  A
C1575      C1576   1.403       .  A
C1575      C1579   1.509       .  S
C1576      H1580   1.085       .  S
C1577      H1587   1.111       .  S
C1577      H1588   1.110       .  S
C1577      H1589   1.110       .  S
C1579      H1590   1.111       .  S
C1579      H1591   1.105       .  S
C1579      H1592   1.110       .  S
C1593      C1594   1.399       .  A
C1593      C1598   1.402       .  A
C1593      H1603   1.085       .  S
C1594      C1599   1.474       .  S
C1594      C1595   1.408       .  A
C1595      C1596   1.401       .  A
C1595      C1600   1.507       .  S
C1596      C1597   1.406       .  A
C1596      H1601   1.084       .  S
C1597      C1598   1.420       .  A
C1598      C1602   1.509       .  S
C1599      C1604   1.408       .  A
C1599      C1608   1.397       .  A
C1600      H1616   1.110       .  S
C1600      H1617   1.109       .  S
C1600      H1618   1.111       .  S
C1602      H1613   1.110       .  S
C1602      H1614   1.111       .  S
C1602      H1615   1.104       .  S
C1604      C1605   1.403       .  A
C1604      C1609   1.506       .  S
C1605      C1606   1.408       .  A
C1605      H1610   1.083       .  S
C1606      C1607   1.421       .  A
C1607      C1608   1.400       .  A
C1607      C1611   1.508       .  S
C1608      H1612   1.084       .  S
C1609      H1619   1.111       .  S
C1609      H1620   1.110       .  S
C1609      H1621   1.109       .  S
C1611      H1622   1.110       .  S
C1611      H1623   1.110       .  S
C1611      H1624   1.111       .  S
C1625      C1626   1.399       .  A
C1625      C1630   1.402       .  A
C1625      H1635   1.085       .  S
C1626      C1631   1.476       .  S
C1626      C1627   1.409       .  A
C1627      C1628   1.401       .  A
C1627      C1632   1.507       .  S
C1628      C1629   1.405       .  A
C1628      H1633   1.084       .  S
C1629      C1630   1.418       .  A
C1630      C1634   1.509       .  S
C1631      C1636   1.408       .  A
C1631      C1640   1.399       .  A
C1632      H1648   1.110       .  S
C1632      H1649   1.110       .  S
C1632      H1650   1.111       .  S
C1634      H1645   1.110       .  S
C1634      H1646   1.111       .  S
C1634      H1647   1.105       .  S
C1636      C1637   1.403       .  A
C1636      C1641   1.507       .  S
C1637      C1638   1.406       .  A
C1637      H1642   1.084       .  S
C1638      C1639   1.419       .  A
C1639      C1640   1.402       .  A
C1639      C1643   1.509       .  S
C1640      H1644   1.085       .  S
C1641      H1651   1.111       .  S
C1641      H1652   1.110       .  S
C1641      H1653   1.110       .  S
C1643      H1654   1.110       .  S
C1643      H1655   1.105       .  S
C1643      H1656   1.111       .  S
C1657      C1658   1.401       .  A
C1657      C1662   1.405       .  A
C1657      H1667   1.085       .  S
C1658      C1663   1.482       .  S
C1658      C1659   1.409       .  A
C1659      C1660   1.403       .  A
C1659      C1664   1.507       .  S
C1660      C1661   1.405       .  A
C1660      H1665   1.084       .  S
C1661      C1662   1.419       .  A
C1662      C1666   1.509       .  S
C1663      C1668   1.409       .  A
C1663      C1672   1.401       .  A
C1664      H1680   1.110       .  S
C1664      H1681   1.110       .  S
C1664      H1682   1.111       .  S
C1666      H1677   1.110       .  S
C1666      H1678   1.111       .  S
C1666      H1679   1.105       .  S
C1668      C1669   1.403       .  A
C1668      C1673   1.506       .  S
C1669      C1670   1.405       .  A
C1669      H1674   1.084       .  S
C1670      C1671   1.419       .  A
C1671      C1672   1.405       .  A
C1671      C1675   1.509       .  S
C1672      H1676   1.085       .  S
C1673      H1683   1.111       .  S
C1673      H1684   1.110       .  S
C1673      H1685   1.110       .  S
C1675      H1686   1.110       .  S
C1675      H1687   1.105       .  S
C1675      H1688   1.111       .  S
C1689      C1690   1.399       .  A
C1689      C1694   1.401       .  A
C1689      H1699   1.086       .  S
C1690      C1695   1.476       .  S
C1690      C1691   1.408       .  A
C1691      C1692   1.401       .  A
C1691      C1696   1.506       .  S
C1692      C1693   1.405       .  A
C1692      H1697   1.085       .  S
C1693      C1694   1.419       .  A
C1694      C1698   1.510       .  S
C1695      C1700   1.409       .  A
C1695      C1704   1.399       .  A
C1696      H1712   1.110       .  S
C1696      H1713   1.110       .  S
C1696      H1714   1.111       .  S
C1698      H1709   1.111       .  S
C1698      H1710   1.110       .  S
C1698      H1711   1.105       .  S
C1700      C1701   1.401       .  A
C1700      C1705   1.507       .  S
C1701      C1702   1.404       .  A
C1701      H1706   1.084       .  S
C1702      C1703   1.418       .  A
C1703      C1704   1.402       .  A
C1703      C1707   1.509       .  S
C1704      H1708   1.084       .  S
C1705      H1715   1.111       .  S
C1705      H1716   1.110       .  S
C1705      H1717   1.110       .  S
C1707      H1718   1.111       .  S
C1707      H1719   1.105       .  S
C1707      H1720   1.110       .  S
C1721      C1722   1.399       .  A
C1721      C1726   1.403       .  A
C1721      H1731   1.085       .  S
C1722      C1727   1.479       .  S
C1722      C1723   1.408       .  A
C1723      C1724   1.402       .  A
C1723      C1728   1.507       .  S
C1724      C1725   1.408       .  A
C1724      H1729   1.086       .  S
C1725      C1726   1.421       .  A
C1726      C1730   1.508       .  S
C1727      C1732   1.410       .  A
C1727      C1736   1.400       .  A
C1728      H1744   1.110       .  S
C1728      H1745   1.110       .  S
C1728      H1746   1.110       .  S
C1730      H1741   1.110       .  S
C1730      H1742   1.109       .  S
C1730      H1743   1.112       .  S
C1732      C1733   1.403       .  A
C1732      C1737   1.507       .  S
C1733      C1734   1.406       .  A
C1733      H1738   1.076       .  S
C1734      C1735   1.418       .  A
C1735      C1736   1.401       .  A
C1735      C1739   1.509       .  S
C1736      H1740   1.088       .  S
C1737      H1747   1.110       .  S
C1737      H1748   1.110       .  S
C1737      H1749   1.111       .  S
C1739      H1750   1.111       .  S
C1739      H1751   1.104       .  S
C1739      H1752   1.111       .  S
C1753      C1754   1.401       .  A
C1753      C1758   1.404       .  A
C1753      H1763   1.085       .  S
C1754      C1759   1.482       .  S
C1754      C1755   1.410       .  A
C1755      C1756   1.404       .  A
C1755      C1760   1.506       .  S
C1756      C1757   1.405       .  A
C1756      H1761   1.084       .  S
C1757      C1758   1.419       .  A
C1758      C1762   1.509       .  S
C1759      C1764   1.410       .  A
C1759      C1768   1.399       .  A
C1760      H1776   1.110       .  S
C1760      H1777   1.110       .  S
C1760      H1778   1.111       .  S
C1762      H1773   1.111       .  S
C1762      H1774   1.110       .  S
C1762      H1775   1.106       .  S
C1764      C1765   1.407       .  A
C1764      C1769   1.506       .  S
C1765      C1766   1.406       .  A
C1765      H1770   1.084       .  S
C1766      C1767   1.418       .  A
C1767      C1768   1.402       .  A
C1767      C1771   1.509       .  S
C1768      H1772   1.085       .  S
C1769      H1779   1.111       .  S
C1769      H1780   1.110       .  S
C1769      H1781   1.110       .  S
C1771      H1782   1.111       .  S
C1771      H1783   1.105       .  S
C1771      H1784   1.110       .  S
C1785      C1786   1.400       .  A
C1785      C1790   1.404       .  A
C1785      H1795   1.084       .  S
C1786      C1791   1.479       .  S
C1786      C1787   1.408       .  A
C1787      C1788   1.403       .  A
C1787      C1792   1.506       .  S
C1788      C1789   1.407       .  A
C1788      H1793   1.082       .  S
C1789      C1790   1.418       .  A
C1790      C1794   1.508       .  S
C1791      C1796   1.408       .  A
C1791      C1800   1.400       .  A
C1792      H1808   1.109       .  S
C1792      H1809   1.111       .  S
C1792      H1810   1.111       .  S
C1794      H1805   1.112       .  S
C1794      H1806   1.109       .  S
C1794      H1807   1.110       .  S
C1796      C1797   1.402       .  A
C1796      C1801   1.506       .  S
C1797      C1798   1.406       .  A
C1797      H1802   1.082       .  S
C1798      C1799   1.420       .  A
C1799      C1800   1.403       .  A
C1799      C1803   1.509       .  S
C1800      H1804   1.083       .  S
C1801      H1811   1.110       .  S
C1801      H1812   1.110       .  S
C1801      H1813   1.111       .  S
C1803      H1814   1.111       .  S
C1803      H1815   1.104       .  S
C1803      H1816   1.110       .  S
C1817      C1818   1.401       .  A
C1817      C1822   1.405       .  A
C1817      H1827   1.085       .  S
C1818      C1823   1.484       .  S
C1818      C1819   1.410       .  A
C1819      C1820   1.404       .  A
C1819      C1824   1.506       .  S
C1820      C1821   1.405       .  A
C1820      H1825   1.084       .  S
C1821      C1822   1.419       .  A
C1822      C1826   1.509       .  S
C1823      C1828   1.410       .  A
C1823      C1832   1.401       .  A
C1824      H1840   1.110       .  S
C1824      H1841   1.110       .  S
C1824      H1842   1.111       .  S
C1826      H1837   1.110       .  S
C1826      H1838   1.111       .  S
C1826      H1839   1.106       .  S
C1828      C1829   1.404       .  A
C1828      C1833   1.506       .  S
C1829      C1830   1.405       .  A
C1829      H1834   1.085       .  S
C1830      C1831   1.420       .  A
C1831      C1832   1.405       .  A
C1831      C1835   1.509       .  S
C1832      H1836   1.084       .  S
C1833      H1843   1.111       .  S
C1833      H1844   1.110       .  S
C1833      H1845   1.110       .  S
C1835      H1846   1.110       .  S
C1835      H1847   1.105       .  S
C1835      H1848   1.111       .  S
