geometry optimzed in LAMMPS
_audit_creation_date              2020-11-30 
_audit_creation_method            'lammps2cif' 
_symmetry_space_group_name_H-M    'P1' 
_symmetry_Int_Tables_number       1 
_symmetry_cell_setting            triclinic 
loop_ 
_symmetry_equiv_pos_as_xyz 
  x,y,z 
_cell_length_a                    45.01477981 
_cell_length_b                    44.95344578363217 
_cell_length_c                    45.078437872104224 
_cell_angle_alpha                 90.07177348863134 
_cell_angle_beta                  89.86577362194664 
_cell_angle_gamma                 89.99858896219224 
loop_ 
_atom_site_label 
_atom_site_type_symbol 
_atom_site_fract_x 
_atom_site_fract_y 
_atom_site_fract_z 
_atom_site_charge 
N1          N  0.99689677  0.26037229  0.25678237    -0.02700
C2          C  0.99496117  0.23008087  0.25892003    -0.00100
C3          C  0.99674631  0.21701264  0.23121880    -0.23000
C4          C  0.99937487  0.23944299  0.21114726    -0.23200
C5          C  0.99977138  0.26567017  0.22707726    -0.00200
H6          H  0.99628886  0.19346244  0.22619638     0.13500
H7          H  0.00131936  0.23695552  0.18733323     0.13600
O8          O  0.99240015  0.40720553  0.44916483    -0.79400
O9          O  0.99797953  0.57621323  0.44468816    -0.80900
O10         O  0.94723867  0.48981935  0.41391734    -0.78000
O11         O  0.04369840  0.48920481  0.41072153    -0.76300
O12         O  0.08093950  0.48988129  0.44521806    -0.78100
O13         O  0.91035987  0.49300225  0.44875777    -0.79100
O14         O  0.99691808  0.53933488  0.40992514    -0.80400
O15         O  0.99429814  0.44244806  0.41284857    -0.80700
Eu16       Eu  0.99608907  0.49146353  0.43666783     2.39200
O17         O  0.02810223  0.52160816  0.46467417    -0.88200
O18         O  0.96526531  0.46309401  0.46785897    -0.91800
C19         C  0.99266170  0.41518160  0.42155447     1.02900
C20         C  0.99746943  0.56704541  0.41752662     1.02700
C21         C  0.91973695  0.49108451  0.42166803     1.02700
C22         C  0.07132922  0.48895069  0.41811287     1.00500
H23         H  0.95377800  0.53510114  0.45316559     0.30300
O24         O  0.96589549  0.52268605  0.46575073    -1.00600
H25         H  0.03785460  0.44862062  0.45432280     0.30300
O26         O  0.02623796  0.46164671  0.46683872    -1.03100
O27         O  0.99758048  0.57936599  0.54129162    -0.80300
O28         O  0.99806899  0.41071305  0.54815775    -0.79900
O29         O  0.91329127  0.54472988  0.50044859    -0.78300
O30         O  0.08283675  0.54104884  0.49456390    -0.81700
O31         O  0.08064537  0.44148405  0.49571087    -0.79500
O32         O  0.91121405  0.44418118  0.49991538    -0.78200
O33         O  0.94830700  0.49484313  0.58194769    -0.79700
O34         O  0.04493192  0.49384778  0.58044331    -0.81600
O35         O  0.91159614  0.49591096  0.54728466    -0.78300
O36         O  0.08171813  0.49238850  0.54545654    -0.81000
O37         O  0.95075590  0.57815519  0.49454557    -0.76800
O38         O  0.94762052  0.40845850  0.49925909    -0.76800
O39         O  0.04271039  0.40765168  0.49514807    -0.76400
O40         O  0.04642100  0.57656664  0.49398000    -0.79900
O41         O  0.99549800  0.54477805  0.57847559    -0.79400
O42         O  0.99698943  0.44760277  0.58288435    -0.77700
Eu43       Eu  0.99803663  0.55246746  0.49397930     2.39800
Eu44       Eu  0.99542301  0.43314954  0.49784362     2.39600
Eu45       Eu  0.93514831  0.49409967  0.49759154     2.38400
Eu46       Eu  0.05804725  0.49175476  0.49561253     2.39900
Eu47       Eu  0.99657994  0.49484919  0.55610607     2.39800
O48         O  0.02657064  0.46348365  0.52669265    -0.92100
O49         O  0.96703081  0.52459553  0.52549605    -0.91000
C50         C  0.99605469  0.57176314  0.56879181     1.03100
C51         C  0.99816613  0.41996673  0.57538981     1.01800
C52         C  0.92325827  0.57169325  0.49854247     1.01200
C53         C  0.07382714  0.56841150  0.49410336     1.03200
C54         C  0.07040858  0.41456404  0.49513010     1.02100
C55         C  0.92034387  0.41683221  0.50005943     1.01000
C56         C  0.92062397  0.49536037  0.57451195     1.01000
C57         C  0.07249486  0.49322636  0.57272658     1.03600
H58         H  0.95342600  0.45199052  0.54074091     0.31000
O59         O  0.96551521  0.46403675  0.52772560    -1.04300
H60         H  0.04022023  0.53582179  0.53717899     0.33100
O61         O  0.02787106  0.52311549  0.52508779    -1.06800
N62         N  0.00432413  0.72808822  0.72171119    -0.02700
C63         C  0.01900720  0.71832262  0.74660268    -0.00100
C64         C  0.04086521  0.73782024  0.75544023    -0.23000
C65         C  0.04013750  0.76097325  0.73627528    -0.23200
C66         C  0.01794267  0.75490724  0.71621137    -0.00200
H67         H  0.05477775  0.73601630  0.77491399     0.13500
H68         H  0.05366647  0.78085438  0.73736395     0.13600
N69         N  0.99947976  0.26097522  0.73443704    -0.02700
C70         C  0.99838908  0.23129494  0.72839373    -0.00100
C71         C  0.99272632  0.21528261  0.75395857    -0.23000
C72         C  0.99065297  0.23541104  0.77666299    -0.23200
C73         C  0.99485009  0.26314226  0.76424495    -0.00200
H74         H  0.99087221  0.19135792  0.75589428     0.13500
H75         H  0.98703034  0.23035815  0.79985764     0.13600
N76         N  0.00874998  0.72981522  0.26180600    -0.02700
C77         C  0.01033137  0.72709019  0.23175094    -0.00100
C78         C  0.01608044  0.75417375  0.21849262    -0.23000
C79         C  0.01739077  0.77466168  0.24070324    -0.23200
C80         C  0.01314218  0.75937474  0.26692909    -0.00200
H81         H  0.01791748  0.75865918  0.19497086     0.13500
H82         H  0.02061636  0.79837221  0.23804633     0.13600
O83         O  0.99940616  0.04094614  0.40663730    -0.79400
O84         O  0.00547712  0.05243421  0.57563437    -0.80900
O85         O  0.95466263  0.08226417  0.49018690    -0.78000
O86         O  0.05349381  0.08117741  0.48992307    -0.76300
O87         O  0.08821960  0.04420292  0.49112671    -0.78100
O88         O  0.91864389  0.04664128  0.49203687    -0.79100
O89         O  0.00498975  0.08577330  0.53733110    -0.80400
O90         O  0.00301048  0.07822732  0.44093657    -0.80700
Eu91       Eu  0.00380749  0.05747388  0.49080043     2.39200
O92         O  0.03353089  0.02875910  0.52247777    -0.88200
O93         O  0.97302430  0.02595575  0.46250641    -0.91800
C94         C  0.00032222  0.06875044  0.41410507     1.02900
C95         C  0.00557204  0.07922005  0.56518063     1.02700
C96         C  0.92712520  0.07402917  0.49086700     1.02700
C97         C  0.08070991  0.07190208  0.49028374     1.00500
H98         H  0.96108485  0.04328148  0.53442431     0.30300
O99         O  0.97330886  0.02986393  0.52293793    -1.00600
H100        H  0.04537484  0.03659027  0.44846363     0.30300
O101        O  0.03288061  0.02510809  0.46160700    -1.03100
O102        O  0.00154220  0.95501472  0.58350880    -0.80300
O103        O  0.00311777  0.94171517  0.41411074    -0.79900
O104        O  0.91769179  0.00076876  0.54175752    -0.78300
O105        O  0.08741038  0.99799604  0.54089430    -0.81700
O106        O  0.08602862  0.99257856  0.44482254    -0.79500
O107        O  0.91826613  0.99470577  0.44687943    -0.78200
O108        O  0.95262234  0.91300203  0.50096630    -0.79700
O109        O  0.05044296  0.91184915  0.49797683    -0.81600
O110        O  0.91743069  0.94954071  0.49900705    -0.78300
O111        O  0.08678924  0.94700351  0.49423450    -0.81000
O112        O  0.95266604  0.00466803  0.57816567    -0.76800
O113        O  0.95299533  0.98983800  0.41016082    -0.76800
O114        O  0.05044518  0.99155723  0.40871397    -0.76400
O115        O  0.05289955  0.99951582  0.57804293    -0.79900
O116        O  0.00103912  0.91709837  0.54948930    -0.79400
O117        O  0.00066670  0.90908381  0.45285703    -0.77700
Eu118      Eu  0.00299578  0.00154983  0.55514544     2.39800
Eu119      Eu  0.00201459  0.99313134  0.43379656     2.39600
Eu120      Eu  0.94308969  0.99788425  0.49465133     2.38400
Eu121      Eu  0.06229376  0.99612447  0.49338868     2.39900
Eu122      Eu  0.00171280  0.93716330  0.49891750     2.39800
O123        O  0.03156894  0.96450619  0.46590657    -0.92100
O124        O  0.97232845  0.96969263  0.52722210    -0.91000
C125        C  0.00090109  0.92723984  0.57629441     1.03100
C126        C  0.00199941  0.91509888  0.42499107     1.01800
C127        C  0.92537730  0.00377652  0.56899395     1.01200
C128        C  0.08001205  0.99836015  0.56845569     1.03200
C129        C  0.07770156  0.99144150  0.41752581     1.02100
C130        C  0.92592280  0.99114099  0.41958975     1.01000
C131        C  0.92535883  0.92196079  0.50061719     1.01000
C132        C  0.07801538  0.91969734  0.49600732     1.03600
H133        H  0.95933733  0.95194198  0.45521735     0.31000
O134        O  0.97203963  0.96514975  0.46636342    -1.04300
H135        H  0.04481688  0.95675887  0.53917991     0.33100
O136        O  0.03244286  0.96877883  0.52647323    -1.06800
N137        N  0.23852224  0.23336022  0.49097945    -0.02700
C138        C  0.23178942  0.26290429  0.49272108    -0.00100
C139        C  0.25721219  0.28008542  0.49263010    -0.23000
C140        C  0.28060374  0.26094322  0.49141685    -0.23200
C141        C  0.26883268  0.23260436  0.49001690    -0.00200
H142        H  0.25851694  0.30410439  0.49379158     0.13500
H143        H  0.30387524  0.26700789  0.49133087     0.13600
N144        N  0.76502178  0.22632390  0.52385199    -0.02700
C145        C  0.77166280  0.25496034  0.53100605    -0.00100
C146        C  0.74744464  0.26892674  0.54377206    -0.23000
C147        C  0.72481736  0.24872380  0.54398209    -0.23200
C148        C  0.73602092  0.22278918  0.53189554    -0.00200
H149        H  0.74582826  0.29209677  0.55014191     0.13500
H150        H  0.70218587  0.25288412  0.55100699     0.13600
N151        N  0.76529344  0.76261543  0.50818063    -0.02700
C152        C  0.73516177  0.76502209  0.50601797    -0.00100
C153        C  0.72152969  0.73813705  0.51191731    -0.23000
C154        C  0.74358497  0.71814463  0.51739844    -0.23200
C155        C  0.77007169  0.73342603  0.51502125    -0.00200
H156        H  0.69794610  0.73345312  0.51146855     0.13500
H157        H  0.74073117  0.69461497  0.52161105     0.13600
N158        N  0.23563969  0.75682509  0.49826778    -0.02700
C159        C  0.23209990  0.72662308  0.49700018    -0.00100
C160        C  0.25922937  0.71234425  0.49877470    -0.23000
C161        C  0.28038702  0.73391047  0.50047768    -0.23200
C162        C  0.26563959  0.76081037  0.50034662    -0.00200
H163        H  0.26318067  0.68859184  0.49854575     0.13500
H164        H  0.30414705  0.73043107  0.50171902     0.13600
N165        N  0.73762238  0.97937331  0.26022260    -0.02700
C166        C  0.76706244  0.97372772  0.26487563    -0.00100
C167        C  0.78168494  0.96906271  0.23830513    -0.23000
C168        C  0.76100357  0.97150280  0.21644874    -0.23200
C169        C  0.73436059  0.97828944  0.23012015    -0.00200
H170        H  0.80516716  0.96489010  0.23516095     0.13500
H171        H  0.76512815  0.96967547  0.19284958     0.13600
O172        O  0.45376133  0.08112836  0.49427913    -0.79400
O173        O  0.44919851  0.91088192  0.49596160    -0.80900
O174        O  0.41513459  0.99663440  0.44646288    -0.78000
O175        O  0.41526798  0.99692296  0.54455544    -0.76300
O176        O  0.45149949  0.99338870  0.57977020    -0.78100
O177        O  0.45083300  0.99751981  0.41043095    -0.79100
O178        O  0.41468597  0.94806932  0.49580619    -0.80400
O179        O  0.41706937  0.04597345  0.49390723    -0.80700
Eu180      Eu  0.43980385  0.99643037  0.49543918     2.39200
O181        O  0.46948047  0.96448927  0.52411291    -0.88200
O182        O  0.47052337  0.02698267  0.46637052    -0.91800
C183        C  0.42621676  0.07317047  0.49315211     1.02900
C184        C  0.42215013  0.92036557  0.49648431     1.02700
C185        C  0.42345910  0.99684730  0.41897734     1.02700
C186        C  0.42392787  0.99546609  0.57185134     1.00500
H187        H  0.45610998  0.95450021  0.45189949     0.30300
O188        O  0.46899660  0.96619065  0.46442842    -1.00600
H189        H  0.45884578  0.03727658  0.53875658     0.30300
O190        O  0.47103230  0.02498794  0.52603768    -1.03100
O191        O  0.54682839  0.90841841  0.48880239    -0.80300
O192        O  0.55264344  0.07629190  0.49933495    -0.79900
O193        O  0.49877579  0.95020068  0.40885657    -0.78300
O194        O  0.49925698  0.94397355  0.57791424    -0.81700
O195        O  0.50142060  0.04038465  0.58034584    -0.79500
O196        O  0.49755443  0.04633729  0.41245622    -0.78200
O197        O  0.58394082  0.99332508  0.44394496    -0.79700
O198        O  0.58601858  0.99280637  0.54165699    -0.81600
O199        O  0.54774532  0.99786056  0.40903720    -0.78300
O200        O  0.55056354  0.99406877  0.57805281    -0.81000
O201        O  0.49577944  0.91243758  0.44273340    -0.76800
O202        O  0.50153319  0.08180033  0.44856046    -0.76800
O203        O  0.49993649  0.07826443  0.54673228    -0.76400
O204        O  0.49854345  0.90800474  0.54195512    -0.79900
O205        O  0.58333507  0.94377061  0.48968068    -0.79400
O206        O  0.58657694  0.03909806  0.49336691    -0.77700
Eu207      Eu  0.49851433  0.93385781  0.49320115     2.39800
Eu208      Eu  0.50196272  0.05550891  0.49676219     2.39600
Eu209      Eu  0.49947228  0.99712522  0.43508743     2.38400
Eu210      Eu  0.50072961  0.99282953  0.55461007     2.39900
Eu211      Eu  0.56004091  0.99247532  0.49338187     2.39800
O212        O  0.53133257  0.02281774  0.52489838    -0.92100
O213        O  0.52871527  0.96421511  0.46308938    -0.91000
C214        C  0.57432441  0.91665582  0.48797740     1.03100
C215        C  0.57958462  0.06653352  0.49697275     1.01800
C216        C  0.49674259  0.92259328  0.41589177     1.01200
C217        C  0.49881260  0.91661838  0.56939816     1.03200
C218        C  0.50005951  0.06815474  0.57359929     1.02100
C219        C  0.49898510  0.07359904  0.42116117     1.01000
C220        C  0.57529326  0.99579203  0.41672403     1.01000
C221        C  0.57795338  0.99414197  0.56917416     1.03600
H222        H  0.54357827  0.03797013  0.45285640     0.31000
O223        O  0.53106320  0.02555560  0.46510568    -1.04300
H224        H  0.54252236  0.94925545  0.53563877     0.33100
O225        O  0.53013184  0.96214557  0.52380729    -1.06800
N226        N  0.26421818  0.99765574  0.73330608    -0.02700
C227        C  0.26677039  0.99862412  0.76356191    -0.00100
C228        C  0.23914840  0.99720601  0.77694494    -0.23000
C229        C  0.21869445  0.99612520  0.75486815    -0.23200
C230        C  0.23427955  0.99597251  0.72847114    -0.00200
H231        H  0.23441053  0.99711612  0.80050213     0.13500
H232        H  0.19483118  0.99505331  0.75770847     0.13600
N233        N  0.73593673  0.02236501  0.72794205    -0.02700
C234        C  0.76550388  0.02841264  0.72445879    -0.00100
C235        C  0.77824320  0.03562941  0.75139099    -0.23000
C236        C  0.75622647  0.03432899  0.77218368    -0.23200
C237        C  0.73067579  0.02570641  0.75760039    -0.00200
H238        H  0.80141732  0.04041085  0.75561974     0.13500
H239        H  0.75884658  0.03782091  0.79579733     0.13600
N240        N  0.26709169  0.97267064  0.25930677    -0.02700
C241        C  0.27211284  0.96786267  0.22983052    -0.00100
C242        C  0.24601541  0.96022874  0.21565698    -0.23000
C243        C  0.22425772  0.95987877  0.23681999    -0.23200
C244        C  0.23745806  0.96793691  0.26328871    -0.00200
H245        H  0.24306768  0.95577553  0.19224754     0.13500
H246        H  0.20088505  0.95567198  0.23308521     0.13600
O247        O  0.59220927  0.99753218  0.03954270    -0.79400
O248        O  0.42323532  0.99068860  0.04909022    -0.80900
O249        O  0.50915039  0.04294436  0.08019147    -0.78000
O250        O  0.50866988  0.94444292  0.07776513    -0.76300
O251        O  0.50829415  0.90920151  0.04135414    -0.78100
O252        O  0.50525021  0.07948964  0.04561088    -0.79100
O253        O  0.46116492  0.99155422  0.08271112    -0.80400
O254        O  0.55717877  0.99602666  0.07642742    -0.80700
Eu255      Eu  0.50760586  0.99450753  0.05471702     2.39200
O256        O  0.47621712  0.96503816  0.02558490    -0.88200
O257        O  0.53539964  0.02603850  0.02361059    -0.91800
C258        C  0.58424531  0.99723702  0.06717541     1.02900
C259        C  0.43341890  0.98998191  0.07590955     1.02700
C260        C  0.50767366  0.07064140  0.07281116     1.02700
C261        C  0.50874930  0.91704472  0.06887090     1.00500
H262        H  0.46308656  0.03663795  0.04086200     0.30300
O263        O  0.47484939  0.02481184  0.02732945    -1.00600
H264        H  0.55006862  0.95297645  0.03440046     0.30300
O265        O  0.53692944  0.96536380  0.02284964    -1.03100
O266        O  0.41723068  0.99637635  0.94961749    -0.80300
O267        O  0.58588053  0.99701036  0.94082609    -0.79900
O268        O  0.45378907  0.07990949  0.99975672    -0.78300
O269        O  0.45703050  0.91091225  0.99984519    -0.81700
O270        O  0.55405068  0.91221583  0.99048987    -0.79500
O271        O  0.55025575  0.08195742  0.99177917    -0.78200
O272        O  0.49898159  0.04511116  0.91083852    -0.79700
O273        O  0.49930718  0.94721146  0.91003067    -0.81600
O274        O  0.49931953  0.08089625  0.94681839    -0.78300
O275        O  0.50115411  0.91087337  0.94532884    -0.81000
O276        O  0.41820724  0.04364806  0.00205569    -0.76800
O277        O  0.58715153  0.04690246  0.98931205    -0.76800
O278        O  0.59003018  0.94824252  0.98933489    -0.76400
O279        O  0.41984741  0.94554319  0.00027374    -0.79900
O280        O  0.45213371  0.99612662  0.91273907    -0.79400
O281        O  0.54762363  0.99585810  0.90748090    -0.77700
Eu282      Eu  0.44334044  0.99488890  0.99815464     2.39800
Eu283      Eu  0.56493537  0.99682118  0.99165451     2.39600
Eu284      Eu  0.50268844  0.05603801  0.99586430     2.38400
Eu285      Eu  0.50515510  0.93555040  0.99389161     2.39900
Eu286      Eu  0.50101986  0.99600812  0.93518183     2.39800
O287        O  0.53370361  0.96622535  0.96275385    -0.92100
O288        O  0.47162914  0.02572730  0.96681586    -0.91000
C289        C  0.42508799  0.99664031  0.92193377     1.03100
C290        C  0.57542362  0.99663458  0.91410432     1.01800
C291        C  0.42655539  0.07118841  0.00191867     1.01200
C292        C  0.42943864  0.91848389  0.00136443     1.03200
C293        C  0.58132246  0.92086287  0.98926946     1.02100
C294        C  0.57768876  0.07406406  0.98939961     1.01000
C295        C  0.49859191  0.07258758  0.91929983     1.01000
C296        C  0.49934980  0.91964444  0.91812959     1.03600
H297        H  0.54328859  0.03922326  0.95075686     0.31000
O298        O  0.53203775  0.02655086  0.96391914    -1.04300
H299        H  0.45944776  0.95267668  0.95435571     0.33100
O300        O  0.47234756  0.96516356  0.96609331    -1.06800
N301        N  0.46372705  0.22594636  0.22891297    -0.02700
C302        C  0.45340585  0.21950104  0.25667801    -0.00100
C303        C  0.43736641  0.24318646  0.26781833    -0.23000
C304        C  0.43776163  0.26494237  0.24646734    -0.23200
C305        C  0.45417259  0.25405331  0.22283675    -0.00200
H306        H  0.42808115  0.24516038  0.28990051     0.13500
H307        H  0.42883454  0.28718391  0.24874827     0.13600
N308        N  0.50406984  0.76013103  0.23089464    -0.02700
C309        C  0.50730012  0.73001969  0.22923256    -0.00100
C310        C  0.50563617  0.71728079  0.25706917    -0.23000
C311        C  0.50192500  0.73993935  0.27678152    -0.23200
C312        C  0.50077375  0.76582420  0.26038900    -0.00200
H313        H  0.50735468  0.69388011  0.26243513     0.13500
H314        H  0.50012784  0.73784581  0.30063945     0.13600
N315        N  0.49424090  0.75882751  0.76128510    -0.02700
C316        C  0.49429391  0.72898203  0.76662969    -0.00100
C317        C  0.49352096  0.71326287  0.74028946    -0.23000
C318        C  0.49237891  0.73372550  0.71798906    -0.23200
C319        C  0.49331232  0.76148423  0.73116776    -0.00200
H320        H  0.49344091  0.68932754  0.73764121     0.13500
H321        H  0.49186754  0.72891866  0.69446132     0.13600
N322        N  0.50078126  0.23274811  0.75882103    -0.02700
C323        C  0.49880176  0.22678089  0.72911858    -0.00100
C324        C  0.50292664  0.25225231  0.71254949    -0.23000
C325        C  0.50696553  0.27495879  0.73209282    -0.23200
C326        C  0.50588497  0.26277325  0.76019336    -0.00200
H327        H  0.50275426  0.25409218  0.68860760     0.13500
H328        H  0.51004022  0.29814798  0.72642181     0.13600
O329        O  0.00408239  0.41555718  0.04330723    -0.79400
O330        O  0.99760555  0.58488460  0.04423983    -0.80900
O331        O  0.04945424  0.50148390  0.07795478    -0.78000
O332        O  0.95106361  0.49761974  0.07877910    -0.76300
O333        O  0.91499724  0.49727462  0.04379096    -0.78100
O334        O  0.08497985  0.50171694  0.04167445    -0.79100
O335        O  0.99728524  0.54763736  0.07894573    -0.80400
O336        O  0.00276395  0.45204104  0.07877269    -0.80700
Eu337      Eu  0.00024939  0.49992808  0.05386380     2.39200
O338        O  0.97022438  0.53095714  0.02463745    -0.88200
O339        O  0.03102818  0.47003918  0.02374310    -0.91800
C340        C  0.00415962  0.42462371  0.07064086     1.02900
C341        C  0.99665026  0.57515833  0.07121858     1.02700
C342        C  0.07681025  0.50194934  0.06914007     1.02700
C343        C  0.92340239  0.49633154  0.07114531     1.00500
H344        H  0.04224863  0.54296055  0.03673322     0.30300
O345        O  0.02999199  0.53081352  0.02401070    -1.00600
H346        H  0.95886214  0.45634061  0.03638920     0.30300
O347        O  0.97089654  0.46905761  0.02397007    -1.03100
O348        O  0.00142348  0.58616268  0.94477741    -0.80300
O349        O  0.00095693  0.41696819  0.94317700    -0.79900
O350        O  0.08469174  0.54820186  0.99389612    -0.78300
O351        O  0.91585084  0.54921914  0.99459092    -0.81700
O352        O  0.91751896  0.45054351  0.99396324    -0.79500
O353        O  0.08605106  0.45336073  0.99270742    -0.78200
O354        O  0.04811976  0.50462478  0.90877885    -0.79700
O355        O  0.95000791  0.49690928  0.91108764    -0.81600
O356        O  0.08445928  0.50446079  0.94410466    -0.78300
O357        O  0.91437103  0.49765939  0.94739306    -0.81000
O358        O  0.05056669  0.58512402  0.99803687    -0.76800
O359        O  0.05187794  0.41607827  0.99063334    -0.76800
O360        O  0.95310527  0.41404447  0.99274226    -0.76400
O361        O  0.95100163  0.58610438  0.99328649    -0.79900
O362        O  0.99797262  0.54937986  0.90971377    -0.79400
O363        O  0.00327012  0.45429878  0.90925057    -0.77700
Eu364      Eu  0.00023910  0.56201212  0.99447585     2.39800
Eu365      Eu  0.00173531  0.43925606  0.99344310     2.39600
Eu366      Eu  0.05997104  0.50090608  0.99322848     2.38400
Eu367      Eu  0.94025444  0.50008867  0.99516681     2.39900
Eu368      Eu  0.99966768  0.50147812  0.93448743     2.39800
O369        O  0.97081125  0.47040507  0.96480454    -0.92100
O370        O  0.03008244  0.53190108  0.96386430    -0.91000
C371        C  0.99960256  0.57682615  0.91761254     1.03100
C372        C  0.00259181  0.42666155  0.91618652     1.01800
C373        C  0.07777219  0.57561154  0.99717203     1.01200
C374        C  0.92380483  0.57683830  0.99334682     1.03200
C375        C  0.92584568  0.42307905  0.99319000     1.02100
C376        C  0.07903454  0.42566114  0.99090861     1.01000
C377        C  0.07565297  0.50541053  0.91683772     1.01000
C378        C  0.92266556  0.49614143  0.92003599     1.03600
H379        H  0.04343817  0.45902072  0.95024578     0.31000
O380        O  0.03064584  0.47060049  0.96303507    -1.04300
H381        H  0.95689107  0.54328806  0.95246884     0.33100
O382        O  0.96957640  0.53129095  0.96490519    -1.06800
N383        N  0.76311045  0.49008410  0.23201717    -0.02700
C384        C  0.73334134  0.48990064  0.22672646    -0.00100
C385        C  0.71731595  0.49166495  0.25282256    -0.23000
C386        C  0.73751523  0.49266318  0.27525379    -0.23200
C387        C  0.76522605  0.49184206  0.26210709    -0.00200
H388        H  0.69338007  0.49180359  0.25518918     0.13500
H389        H  0.73261577  0.49367407  0.29875341     0.13600
N390        N  0.23277257  0.51174013  0.23084991    -0.02700
C391        C  0.26221564  0.51907465  0.22940458    -0.00100
C392        C  0.27374053  0.52298230  0.25750185    -0.23000
C393        C  0.25106359  0.51804013  0.27704638    -0.23200
C394        C  0.22631497  0.51088026  0.26044617    -0.00200
H395        H  0.29656198  0.52791926  0.26319259     0.13500
H396        H  0.25262454  0.51859893  0.30099857     0.13600
N397        N  0.23674900  0.50457201  0.75849255    -0.02700
C398        C  0.26660857  0.50493087  0.76362016    -0.00100
C399        C  0.28218721  0.50554678  0.73719200    -0.23000
C400        C  0.26168351  0.50484300  0.71496753    -0.23200
C401        C  0.23399519  0.50463271  0.72829721    -0.00200
H402        H  0.30608180  0.50540098  0.73443322     0.13500
H403        H  0.26645139  0.50438499  0.69142531     0.13600
N404        N  0.76354758  0.46111124  0.76491460    -0.02700
C405        C  0.76924837  0.45353121  0.73608581    -0.00100
C406        C  0.74469446  0.44026533  0.72337263    -0.23000
C407        C  0.72276723  0.44023932  0.74433561    -0.23200
C408        C  0.73457454  0.45304272  0.76955119    -0.00200
H409        H  0.74232172  0.43347654  0.70045272     0.13500
H410        H  0.70003601  0.43315518  0.74101595     0.13600
N411        N  0.26345904  0.25870751  0.99349031    -0.02700
C412        C  0.23396511  0.26363550  0.98839393    -0.00100
C413        C  0.21883410  0.23700058  0.98621302    -0.23000
C414        C  0.23935240  0.21484425  0.98973448    -0.23200
C415        C  0.26646266  0.22848249  0.99433444    -0.00200
H416        H  0.19527412  0.23405257  0.98248174     0.13500
H417        H  0.23500211  0.19117345  0.98907756     0.13600
O418        O  0.49649563  0.44285591  0.08125796    -0.79400
O419        O  0.49883215  0.45032830  0.91044284    -0.80900
O420        O  0.45065129  0.40969197  0.99636061    -0.78000
O421        O  0.54800745  0.41064866  0.99288210    -0.76300
O422        O  0.58375288  0.44657077  0.99332498    -0.78100
O423        O  0.41481587  0.44553349  0.99833142    -0.79100
O424        O  0.50005677  0.41319010  0.94521120    -0.80400
O425        O  0.49786471  0.40836348  0.04377646    -0.80700
Eu426      Eu  0.49900439  0.43485710  0.99540776     2.39200
O427        O  0.52760944  0.46684568  0.96550083    -0.88200
O428        O  0.46927538  0.46354448  0.02747489    -0.91800
C429        C  0.49622497  0.41585701  0.07148003     1.02900
C430        C  0.50018362  0.42267260  0.91815101     1.02700
C431        C  0.42323511  0.41798652  0.99757150     1.02700
C432        C  0.57544901  0.41903825  0.99248979     1.00500
H433        H  0.45538981  0.45411840  0.95426311     0.30300
O434        O  0.46807567  0.46609307  0.96674545    -1.00600
H435        H  0.54240589  0.45085599  0.03728846     0.30300
O436        O  0.52978502  0.46388244  0.02586240    -1.03100
O437        O  0.49650684  0.54923094  0.91643372    -0.80300
O438        O  0.50376065  0.53956539  0.08538481    -0.79900
O439        O  0.41280023  0.49815539  0.95210086    -0.78300
O440        O  0.58076635  0.49530815  0.94591939    -0.81700
O441        O  0.58430608  0.49481957  0.04295749    -0.79500
O442        O  0.41512768  0.49436723  0.04745069    -0.78200
O443        O  0.45107152  0.58018486  0.00308442    -0.79700
O444        O  0.54840316  0.58033722  0.99947680    -0.81600
O445        O  0.41484587  0.54471779  0.00181780    -0.78300
O446        O  0.58432037  0.54494355  0.99476077    -0.81000
O447        O  0.44692274  0.49931489  0.91446360    -0.76800
O448        O  0.45077646  0.49697511  0.08309721    -0.76800
O449        O  0.54996790  0.49009949  0.08019225    -0.76400
O450        O  0.54503258  0.49980957  0.91063093    -0.79900
O451        O  0.49824736  0.58260685  0.95479430    -0.79400
O452        O  0.50420812  0.57682329  0.05078950    -0.77700
Eu453      Eu  0.49700173  0.49829364  0.93703061     2.39800
Eu454      Eu  0.49990891  0.49239196  0.05833953     2.39600
Eu455      Eu  0.43901260  0.49516217  0.99912927     2.38400
Eu456      Eu  0.55891686  0.49556444  0.99560397     2.39900
Eu457      Eu  0.49963706  0.55525236  0.00105106     2.39800
O458        O  0.53000291  0.52364128  0.02886082    -0.92100
O459        O  0.46835172  0.52700308  0.96999354    -0.91000
C460        C  0.49726700  0.57596276  0.92707216     1.03100
C461        C  0.50540299  0.56712953  0.07767500     1.01800
C462        C  0.41995088  0.49908285  0.92446138     1.01200
C463        C  0.57247346  0.49775293  0.91868901     1.03200
C464        C  0.57691556  0.49195671  0.07038699     1.02100
C465        C  0.42330953  0.49713817  0.07460815     1.01000
C466        C  0.42353602  0.57213173  0.00320275     1.01000
C467        C  0.57585058  0.57247659  0.99640590     1.03600
H468        H  0.45778304  0.53652525  0.04306588     0.31000
O469        O  0.46963287  0.52415148  0.03012145    -1.04300
H470        H  0.54036690  0.53991400  0.95561514     0.33100
O471        O  0.52826498  0.52697806  0.96772647    -1.06800
N472        N  0.73355260  0.72995741  0.95620963    -0.02700
C473        C  0.72902696  0.75888321  0.94865545    -0.00100
C474        C  0.75398415  0.77037301  0.93491709    -0.23000
C475        C  0.77466931  0.74794303  0.93406290    -0.23200
C476        C  0.76168076  0.72344283  0.94723524    -0.00200
H477        H  0.75747197  0.79321463  0.92819691     0.13500
H478        H  0.79748959  0.74991976  0.92672130     0.13600
N479        N  0.26682314  0.73385636  0.02395258    -0.02700
C480        C  0.27015684  0.76383498  0.02685795    -0.00100
C481        C  0.24344786  0.77734289  0.03366380    -0.23000
C482        C  0.22262081  0.75531227  0.03464802    -0.23200
C483        C  0.23730187  0.72899094  0.02870628    -0.00200
H484        H  0.23945256  0.80090853  0.03659822     0.13500
H485        H  0.19903050  0.75821775  0.03834862     0.13600
N486        N  0.73772509  0.26255877  0.97927934    -0.02700
C487        C  0.76743311  0.26834462  0.97779978    -0.00100
C488        C  0.78321542  0.24271754  0.97165075    -0.23000
C489        C  0.76309792  0.22015976  0.97000048    -0.23200
C490        C  0.73536626  0.23264184  0.97431319    -0.00200
H491        H  0.80709452  0.24054627  0.96973781     0.13500
H492        H  0.76818281  0.19691718  0.96628317     0.13600
C493        C  0.66836035  0.30692389  0.96244821    -0.04700
C494        C  0.66757205  0.32706103  0.98640750     0.09400
C495        C  0.68950337  0.32535596  0.00858589    -0.02100
C496        C  0.71200362  0.30347225  0.00695048    -0.00400
C497        C  0.71374636  0.28408227  0.98216353    -0.04000
C498        C  0.69202574  0.28651878  0.95963422     0.03000
C499        C  0.64393474  0.35054192  0.98796115     0.09900
C500        C  0.68867272  0.34612981  0.03323847     0.35800
C501        C  0.69527388  0.26995050  0.93227000     0.39200
C502        C  0.61732660  0.34518471  0.00351280    -0.04300
C503        C  0.59473316  0.36701240  0.00443927     0.02800
C504        C  0.59909855  0.39529071  0.99092074    -0.03900
C505        C  0.62599593  0.40027149  0.97506572    -0.00200
C506        C  0.64810651  0.37799795  0.97354311    -0.02700
C507        C  0.61332327  0.31702265  0.01869644     0.36500
C508        C  0.63065846  0.42762111  0.95879440     0.40100
C509        C  0.56683485  0.35962860  0.01878371     0.39300
C510        C  0.67527418  0.38321867  0.95690702     0.36200
C511        C  0.64458212  0.30703158  0.94079354     0.36900
C512        C  0.73234855  0.30034254  0.03155482     0.40100
N513        N  0.54441314  0.35323570  0.02965002    -0.37900
N514        N  0.61032130  0.29460698  0.03093527    -0.39500
N515        N  0.63483403  0.44925510  0.94560731    -0.37300
N516        N  0.69689816  0.38735938  0.94359933    -0.39700
N517        N  0.68791244  0.36281913  0.05279492    -0.39400
N518        N  0.74779191  0.29821292  0.05192444    -0.37100
N519        N  0.69775247  0.25753925  0.90990445    -0.38100
N520        N  0.62539059  0.30673247  0.92376176    -0.39800
C521        C  0.35124068  0.61666176  0.99281488    -0.04700
C522        C  0.35739675  0.64280239  0.00898476     0.09400
C523        C  0.38503214  0.64577060  0.02332081    -0.02100
C524        C  0.40602790  0.62239983  0.02236592    -0.00400
C525        C  0.40043771  0.59630686  0.00536353    -0.04000
C526        C  0.37288985  0.59395840  0.99018017     0.03000
C527        C  0.33406637  0.66652266  0.01251304     0.09900
C528        C  0.39171084  0.67295286  0.03939260     0.35800
C529        C  0.36683075  0.56872833  0.97103355     0.39200
C530        C  0.31642785  0.66730227  0.03833754    -0.04300
C531        C  0.29487187  0.68981247  0.04227826     0.02800
C532        C  0.28997633  0.71149790  0.02002812    -0.03900
C533        C  0.30806692  0.71080021  0.99421605    -0.00200
C534        C  0.32986847  0.68835881  0.99048991    -0.02700
C535        C  0.32054770  0.64467250  0.06090407     0.36500
C536        C  0.30415407  0.73246835  0.97087434     0.40100
C537        C  0.27921439  0.69150586  0.07026956     0.39300
C538        C  0.34789404  0.68748929  0.96377730     0.36200
C539        C  0.32220648  0.61293712  0.97941071     0.36900
C540        C  0.43280192  0.62500478  0.04007899     0.40100
N541        N  0.26784068  0.69230433  0.09328819    -0.37900
N542        N  0.32396965  0.62647442  0.07870848    -0.39500
N543        N  0.30178791  0.74897276  0.95134582    -0.37300
N544        N  0.36215945  0.68674069  0.94239634    -0.39700
N545        N  0.39705869  0.69469004  0.05208648    -0.39400
N546        N  0.45402319  0.62717478  0.05437030    -0.37100
N547        N  0.36173716  0.54875398  0.95563833    -0.38100
N548        N  0.29889607  0.60999775  0.96903678    -0.39800
C549        C  0.61359775  0.64728031  0.97712490    -0.04700
C550        C  0.64322989  0.64231130  0.98594322     0.09400
C551        C  0.65047949  0.61512348  0.99984475    -0.02100
C552        C  0.62847441  0.59292262  0.00442137    -0.00400
C553        C  0.59897155  0.59697829  0.99388251    -0.04000
C554        C  0.59177218  0.62484245  0.98061336     0.03000
C555        C  0.66698370  0.66507203  0.97879071     0.09900
C556        C  0.68091812  0.60977010  0.00887717     0.35800
C557        C  0.56210214  0.63073521  0.96958836     0.39200
C558        C  0.67943654  0.68341173  0.00111322    -0.04300
C559        C  0.70150887  0.70478776  0.99386049     0.02800
C560        C  0.71090761  0.70841951  0.96421003    -0.03900
C561        C  0.69780370  0.69075211  0.94188788    -0.00200
C562        C  0.67635484  0.66899587  0.94910397    -0.02700
C563        C  0.66901725  0.68075590  0.03143083     0.36500
C564        C  0.70545925  0.69592256  0.91112837     0.40100
C565        C  0.71433110  0.72316046  0.01686975     0.39300
C566        C  0.66360882  0.65078312  0.92579008     0.36200
C567        C  0.60566966  0.67559865  0.96382053     0.36900
C568        C  0.63618230  0.56648914  0.02114371     0.40100
N569        N  0.72419660  0.73764960  0.03565314    -0.37900
N570        N  0.66065246  0.67872952  0.05563911    -0.39500
N571        N  0.71080138  0.70034294  0.88640225    -0.37300
N572        N  0.65328255  0.63637776  0.90718730    -0.39700
N573        N  0.70526659  0.60564837  0.01596668    -0.39400
N574        N  0.64240826  0.54558221  0.03474520    -0.37100
N575        N  0.53854996  0.63602310  0.96081777    -0.38100
N576        N  0.59945476  0.69813368  0.95310739    -0.39800
C577        C  0.31470929  0.32259865  0.97419510    -0.04700
C578        C  0.33215683  0.32492731  0.00002520     0.09400
C579        C  0.32712286  0.30504357  0.02370221    -0.02100
C580        C  0.30426327  0.28347165  0.02182126    -0.00400
C581        C  0.28679176  0.28097553  0.99582334    -0.04000
C582        C  0.29252278  0.30054911  0.97192717     0.03000
C583        C  0.35640825  0.34789528  0.00148179     0.09900
C584        C  0.34591719  0.30648577  0.04975824     0.35800
C585        C  0.27705769  0.29704379  0.94405929     0.39200
C586        C  0.35195719  0.37486333  0.01686060    -0.04300
C587        C  0.37355624  0.39770387  0.01561053     0.02800
C588        C  0.39991188  0.39397277  0.99855301    -0.03900
C589        C  0.40422882  0.36657693  0.98326622    -0.00200
C590        C  0.38295039  0.34354873  0.98541610    -0.02700
C591        C  0.32504576  0.37903860  0.03414253     0.36500
C592        C  0.42980913  0.36218357  0.96407991     0.40100
C593        C  0.36853443  0.42478555  0.03243403     0.39300
C594        C  0.38828515  0.31506447  0.97114146     0.36200
C595        C  0.32007418  0.34268906  0.94956202     0.36900
C596        C  0.29828009  0.26461662  0.04712878     0.40100
N597        N  0.36428898  0.44634787  0.04584389    -0.37900
N598        N  0.30368731  0.38230489  0.04811009    -0.39500
N599        N  0.45002626  0.35841840  0.94860628    -0.37300
N600        N  0.39237629  0.29218943  0.96005162    -0.39700
N601        N  0.36107078  0.30758888  0.07043766    -0.39400
N602        N  0.29379147  0.25017505  0.06789122    -0.37100
N603        N  0.26587083  0.29465147  0.92110766    -0.38100
N604        N  0.32451583  0.35863197  0.92990931    -0.39800
C605        C  0.68787007  0.49839581  0.82377083    -0.04700
C606        C  0.66980892  0.47614816  0.83643159     0.09400
C607        C  0.67512893  0.44604169  0.82956224    -0.02100
C608        C  0.69710810  0.43833159  0.80858412    -0.00400
C609        C  0.71530549  0.46063108  0.79554428    -0.04000
C610        C  0.71051148  0.49073457  0.80345236     0.03000
C611        C  0.64452176  0.48453895  0.85636373     0.09900
C612        C  0.65763248  0.42299918  0.84388828     0.35800
C613        C  0.72626729  0.51440175  0.78841305     0.39200
C614        C  0.61496205  0.48287587  0.84613314    -0.04300
C615        C  0.59101632  0.48842906  0.86572996     0.02800
C616        C  0.59663735  0.49717908  0.89554997    -0.03900
C617        C  0.62654115  0.50312514  0.90392724    -0.00200
C618        C  0.65020892  0.49491677  0.88520521    -0.02700
C619        C  0.60929693  0.47538548  0.81532454     0.36500
C620        C  0.63343404  0.51830648  0.93152696     0.40100
C621        C  0.56092642  0.48505061  0.85474262     0.39300
C622        C  0.68055865  0.49637190  0.89593902     0.36200
C623        C  0.68227091  0.52941766  0.83083229     0.36900
C624        C  0.69966201  0.40748768  0.79935555     0.40100
N625        N  0.53701507  0.48256426  0.84566710    -0.37900
N626        N  0.60487573  0.46961456  0.79069882    -0.39500
N627        N  0.63918466  0.53044028  0.95342885    -0.37300
N628        N  0.70476237  0.49730641  0.90448118    -0.39700
N629        N  0.64376819  0.40464508  0.85541502    -0.39400
N630        N  0.70132297  0.38287637  0.79194889    -0.37100
N631        N  0.73777394  0.53415042  0.77666256    -0.38100
N632        N  0.67778192  0.55409350  0.83665340    -0.39800
C633        C  0.30053156  0.52225467  0.83914309    -0.04700
C634        C  0.32219601  0.49966759  0.84068784     0.09400
C635        C  0.32226857  0.47654374  0.81960185    -0.02100
C636        C  0.30236026  0.47730618  0.79566458    -0.00400
C637        C  0.28221687  0.50135208  0.79249642    -0.04000
C638        C  0.28088992  0.52349060  0.81478294     0.03000
C639        C  0.34633246  0.50105122  0.86328433     0.09900
C640        C  0.34347770  0.45233957  0.82208744     0.35800
C641        C  0.26115739  0.54874335  0.81185847     0.39200
C642        C  0.34566972  0.48190813  0.88791713    -0.04300
C643        C  0.37015509  0.48052456  0.90722045     0.02800
C644        C  0.39494502  0.49957156  0.90294988    -0.03900
C645        C  0.39485643  0.51984187  0.87895780    -0.00200
C646        C  0.37085210  0.52014639  0.85888993    -0.02700
C647        C  0.31960084  0.46370015  0.89339721     0.36500
C648        C  0.41877595  0.54121369  0.87547135     0.40100
C649        C  0.36998454  0.45860546  0.93081236     0.39300
C650        C  0.37130201  0.54009502  0.83360628     0.36200
C651        C  0.29901001  0.54448781  0.86244580     0.36900
C652        C  0.30318532  0.45354005  0.77378698     0.40100
N653        N  0.36944006  0.44091069  0.94941551    -0.37900
N654        N  0.29871265  0.44937113  0.89787499    -0.39500
N655        N  0.43767267  0.55845738  0.87269915    -0.37300
N656        N  0.37149069  0.55599963  0.81343772    -0.39700
N657        N  0.36025290  0.43294592  0.82415003    -0.39400
N658        N  0.30369713  0.43462340  0.75635213    -0.37100
N659        N  0.24583311  0.56933708  0.81020701    -0.38100
N660        N  0.29783646  0.56200063  0.88125145    -0.39800
C661        C  0.34971971  0.52223257  0.10965163    -0.04700
C662        C  0.35358559  0.51355782  0.13924136     0.09400
C663        C  0.38027547  0.49993822  0.14818091    -0.02100
C664        C  0.40296248  0.49415161  0.12728050    -0.00400
C665        C  0.39917551  0.50232235  0.09708169    -0.04000
C666        C  0.37208423  0.51650809  0.08855781     0.03000
C667        C  0.32828942  0.51630602  0.16043771     0.09900
C668        C  0.38412272  0.49164412  0.17903259     0.35800
C669        C  0.36629266  0.52527701  0.05814254     0.39200
C670        C  0.30878900  0.49213087  0.16417765    -0.04300
C671        C  0.28614253  0.49336827  0.18574743     0.02800
C672        C  0.28179148  0.51954447  0.20266411    -0.03900
C673        C  0.30078181  0.54433157  0.19778251    -0.00200
C674        C  0.32411793  0.54253617  0.17694900    -0.02700
C675        C  0.31304157  0.46537503  0.14657595     0.36500
C676        C  0.29719655  0.57141630  0.21498519     0.40100
C677        C  0.27007481  0.46634706  0.19255385     0.39300
C678        C  0.34463143  0.56717898  0.17325518     0.36200
C679        C  0.32233357  0.53691830  0.10090143     0.36900
C680        C  0.42955551  0.47879650  0.13702217     0.40100
N681        N  0.25852215  0.44390291  0.19743883    -0.37900
N682        N  0.31662434  0.44415607  0.13245284    -0.39500
N683        N  0.29445235  0.59312039  0.22856164    -0.37300
N684        N  0.36115971  0.58669518  0.17039726    -0.39700
N685        N  0.38704382  0.48516650  0.20369093    -0.39400
N686        N  0.45068937  0.46653564  0.14498929    -0.37100
N687        N  0.36065739  0.53198155  0.03403531    -0.38100
N688        N  0.30058033  0.54871006  0.09396563    -0.39800
C689        C  0.67808305  0.46332555  0.17025500    -0.04700
C690        C  0.67530330  0.48884954  0.15244435     0.09400
C691        C  0.69495132  0.51295402  0.15607605    -0.02100
C692        C  0.71615024  0.51242253  0.17900351    -0.00400
C693        C  0.71805791  0.48743413  0.19787842    -0.04000
C694        C  0.69909603  0.46274038  0.19316980     0.03000
C695        C  0.65044307  0.49071295  0.13095621     0.09900
C696        C  0.69239997  0.53877942  0.13695831     0.35800
C697        C  0.69931621  0.43768843  0.21348381     0.39200
C698        C  0.62450755  0.50675283  0.13833173    -0.04300
C699        C  0.60019722  0.50696829  0.11876967     0.02800
C700        C  0.60162799  0.49068452  0.09192775    -0.03900
C701        C  0.62756271  0.47410023  0.08504166    -0.00200
C702        C  0.65199056  0.47453340  0.10431665    -0.02700
C703        C  0.62268621  0.52270974  0.16629037     0.36500
C704        C  0.62907243  0.45549321  0.05877137     0.40100
C705        C  0.57408567  0.52442074  0.12623026     0.39300
C706        C  0.67864791  0.45777546  0.09711573     0.36200
C707        C  0.65834172  0.43816065  0.16575743     0.36900
C708        C  0.73339324  0.53894699  0.18499580     0.40100
N709        N  0.55333398  0.53827671  0.13251539    -0.37900
N710        N  0.62106589  0.53547132  0.18854790    -0.39500
N711        N  0.63099981  0.44039412  0.03806871    -0.37300
N712        N  0.69984308  0.44429686  0.09153682    -0.39700
N713        N  0.69027914  0.55935459  0.12170253    -0.39400
N714        N  0.74636569  0.56072532  0.18934796    -0.37100
N715        N  0.69915658  0.41779491  0.22975733    -0.38100
N716        N  0.64268310  0.41811560  0.16188940    -0.39800
C717        C  0.87561096  0.63982222  0.96357733    -0.04700
C718        C  0.84917881  0.63544163  0.97991373     0.09400
C719        C  0.84862016  0.61426989  0.00298052    -0.02100
C720        C  0.87417713  0.59720407  0.00914720    -0.00400
C721        C  0.89954455  0.59924018  0.99070589    -0.04000
C722        C  0.90041466  0.62130559  0.96834486     0.03000
C723        C  0.82284397  0.65483688  0.97382799     0.09900
C724        C  0.82179252  0.61004698  0.02035041     0.35800
C725        C  0.92651484  0.62499296  0.94984122     0.39200
C726        C  0.80723642  0.65202743  0.94683440    -0.04300
C727        C  0.78682538  0.67417670  0.93810931     0.02800
C728        C  0.77973929  0.69779889  0.95758106    -0.03900
C729        C  0.79482997  0.70001911  0.98499999    -0.00200
C730        C  0.81656922  0.67891914  0.99284467    -0.02700
C731        C  0.81377123  0.62734420  0.92710313     0.36500
C732        C  0.79086902  0.72587144  0.00377225     0.40100
C733        C  0.77629427  0.67441773  0.90777751     0.39300
C734        C  0.83445785  0.68350182  0.01922713     0.36200
C735        C  0.87732378  0.66380325  0.94207918     0.36900
C736        C  0.87540899  0.57956252  0.03598624     0.40100
N737        N  0.76927024  0.67436390  0.88310386    -0.37900
N738        N  0.81907722  0.60774114  0.91129859    -0.39500
N739        N  0.78898401  0.74630177  0.01925106    -0.37300
N740        N  0.84894553  0.68735676  0.04005308    -0.39700
N741        N  0.80038980  0.60656041  0.03419200    -0.39400
N742        N  0.87691976  0.56641230  0.05796693    -0.37100
N743        N  0.94716798  0.62857223  0.93495710    -0.38100
N744        N  0.87850026  0.68309903  0.92514553    -0.39800
C745        C  0.80187851  0.34516434  0.97001760    -0.04700
C746        C  0.82570675  0.34230468  0.99010551     0.09400
C747        C  0.82685852  0.31775625  0.00939540    -0.02100
C748        C  0.80520580  0.29540144  0.00756498    -0.00400
C749        C  0.78318324  0.29644673  0.98517994    -0.04000
C750        C  0.78100842  0.32189001  0.96694773     0.03000
C751        C  0.85089306  0.36387403  0.98999856     0.09900
C752        C  0.85137980  0.31468627  0.03004100     0.35800
C753        C  0.75889847  0.32343151  0.94369776     0.39200
C754        C  0.85363071  0.38470479  0.01318136    -0.04300
C755        C  0.87921443  0.40252715  0.01518117     0.02800
C756        C  0.90168346  0.40066760  0.99332275    -0.03900
C757        C  0.89964364  0.37878370  0.97090704    -0.00200
C758        C  0.87418670  0.36052901  0.96918328    -0.02700
C759        C  0.83054129  0.38704624  0.03559395     0.36500
C760        C  0.92394098  0.37437520  0.95017943     0.40100
C761        C  0.88374491  0.42065321  0.04134616     0.39300
C762        C  0.87224069  0.33765723  0.94653293     0.36200
C763        C  0.79934434  0.37172194  0.95205822     0.36900
C764        C  0.80625811  0.27061801  0.02819621     0.40100
N765        N  0.88758482  0.43417705  0.06281127    -0.37900
N766        N  0.81226499  0.38883878  0.05360513    -0.39500
N767        N  0.94345507  0.37025675  0.93392355    -0.37300
N768        N  0.87060434  0.31931559  0.92857309    -0.39700
N769        N  0.87108048  0.31227773  0.04630764    -0.39400
N770        N  0.80693453  0.25091680  0.04467993    -0.37100
N771        N  0.74152952  0.32519231  0.92489446    -0.38100
N772        N  0.79702147  0.39304873  0.93793266    -0.39800
C773        C  0.12401878  0.64745791  0.00039152    -0.04700
C774        C  0.15220661  0.63625674  0.00792667     0.09400
C775        C  0.15653195  0.60563662  0.01134531    -0.02100
C776        C  0.13251472  0.58591056  0.00806036    -0.00400
C777        C  0.10343529  0.59684241  0.00078229    -0.04000
C778        C  0.09965001  0.62802607  0.99705076     0.03000
C779        C  0.17716892  0.65699705  0.01407188     0.09900
C780        C  0.18599782  0.59454233  0.01858517     0.35800
C781        C  0.07085747  0.64067742  0.99004686     0.39200
C782        C  0.18082260  0.66847703  0.04286628    -0.04300
C783        C  0.20225708  0.69055891  0.04821278     0.02800
C784        C  0.22073057  0.70074536  0.02482455    -0.03900
C785        C  0.21786739  0.68798960  0.99626025    -0.00200
C786        C  0.19643108  0.66577085  0.99109076    -0.02700
C787        C  0.16178435  0.65810440  0.06676156     0.36500
C788        C  0.23402916  0.69995475  0.97117551     0.40100
C789        C  0.20368533  0.70420329  0.07737359     0.39300
C790        C  0.19331402  0.65265962  0.96182217     0.36200
C791        C  0.12017268  0.67921666  0.99607741     0.36900
C792        C  0.13856569  0.55453890  0.01306192     0.40100
N793        N  0.20446041  0.71508986  0.10064155    -0.37900
N794        N  0.14659843  0.64966026  0.08571492    -0.39500
N795        N  0.24579884  0.70910600  0.95026275    -0.37300
N796        N  0.19087840  0.64208879  0.93853319    -0.39700
N797        N  0.20951695  0.58588672  0.02427742    -0.39400
N798        N  0.14398533  0.52966959  0.01693329    -0.37100
N799        N  0.04790687  0.65092008  0.98464643    -0.38100
N800        N  0.11709888  0.70451407  0.99249157    -0.39800
C801        C  0.15597543  0.39207714  0.97424494    -0.04700
C802        C  0.15315934  0.36342037  0.98637258     0.09400
C803        C  0.12579330  0.35446964  0.99875095    -0.02100
C804        C  0.10153758  0.37438968  0.00006363    -0.00400
C805        C  0.10430976  0.40374338  0.98871809    -0.04000
C806        C  0.13189206  0.41221724  0.97544404     0.03000
C807        C  0.17842138  0.34171122  0.98500283     0.09900
C808        C  0.12254210  0.32423896  0.00958530     0.35800
C809        C  0.13580353  0.44138589  0.96217114     0.39200
C810        C  0.19573453  0.33607780  0.01045167    -0.04300
C811        C  0.21530063  0.31148373  0.01115869     0.02800
C812        C  0.21832180  0.29284736  0.98603994    -0.03900
C813        C  0.20159472  0.29929948  0.96018941    -0.00200
C814        C  0.18219272  0.32390259  0.95955898    -0.02700
C815        C  0.19207581  0.35468657  0.03652052     0.36500
C816        C  0.20261028  0.27943419  0.93479631     0.40100
C817        C  0.22914133  0.30334570  0.03897022     0.39300
C818        C  0.16475150  0.32999713  0.93321833     0.36200
C819        C  0.18353724  0.40052314  0.95973093     0.36900
C820        C  0.07404304  0.36438934  0.01361899     0.40100
N821        N  0.23932555  0.29695824  0.06162388    -0.37900
N822        N  0.18912712  0.36951151  0.05732796    -0.39500
N823        N  0.20318465  0.26356122  0.91456713    -0.37300
N824        N  0.15083522  0.33497486  0.91224980    -0.39700
N825        N  0.12023558  0.30002560  0.01796680    -0.39400
N826        N  0.05215608  0.35608651  0.02429414    -0.37100
N827        N  0.13932054  0.46462716  0.95170923    -0.38100
N828        N  0.20535397  0.40719317  0.94784120    -0.39800
C829        C  0.87792622  0.46549856  0.85514204    -0.04700
C830        C  0.85474943  0.48655939  0.85267707     0.09400
C831        C  0.85366949  0.51068721  0.87280579    -0.02100
C832        C  0.87582312  0.51396109  0.89480429    -0.00400
C833        C  0.89897656  0.49282075  0.89719516    -0.04000
C834        C  0.89894504  0.46784623  0.87818214     0.03000
C835        C  0.83011243  0.48155419  0.83065509     0.09900
C836        C  0.82942512  0.53184038  0.87119958     0.35800
C837        C  0.91797992  0.44273413  0.88465296     0.39200
C838        C  0.81022086  0.45772738  0.83476573    -0.04300
C839        C  0.78923569  0.45050812  0.81270294     0.02800
C840        C  0.78534992  0.46904130  0.78754567    -0.03900
C841        C  0.80420901  0.49421652  0.78451458    -0.00200
C842        C  0.82719245  0.49961442  0.80528648    -0.02700
C843        C  0.81174435  0.44024910  0.86175053     0.36500
C844        C  0.79985775  0.51541945  0.76084535     0.40100
C845        C  0.77373662  0.42242962  0.81511126     0.39300
C846        C  0.84830470  0.52348212  0.80031795     0.36200
C847        C  0.87994062  0.44109250  0.83412123     0.36900
C848        C  0.87438899  0.53874508  0.91539590     0.40100
N849        N  0.76258684  0.39942439  0.81791616    -0.37900
N850        N  0.81311058  0.42650452  0.88337049    -0.39500
N851        N  0.79704247  0.53334775  0.74266654    -0.37300
N852        N  0.86529027  0.54240342  0.79638903    -0.39700
N853        N  0.81007013  0.54871700  0.86980182    -0.39400
N854        N  0.87325147  0.55844356  0.93191138    -0.37100
N855        N  0.93213178  0.42206941  0.89037320    -0.38100
N856        N  0.88163787  0.42170266  0.81728885    -0.39800
C857        C  0.14431984  0.52876117  0.87181541    -0.04700
C858        C  0.14342244  0.50848029  0.84783918     0.09400
C859        C  0.12006495  0.48753592  0.84646101    -0.02100
C860        C  0.09833563  0.48635522  0.86911527    -0.00400
C861        C  0.09883542  0.50690825  0.89292675    -0.04000
C862        C  0.12183555  0.52841023  0.89387439     0.03000
C863        C  0.16784852  0.50794277  0.82484963     0.09900
C864        C  0.11880061  0.46660241  0.82194935     0.35800
C865        C  0.12210722  0.55073166  0.91709966     0.39200
C866        C  0.18835454  0.48416626  0.82429256    -0.04300
C867        C  0.21045364  0.48261124  0.80204530     0.02800
C868        C  0.21316698  0.50542020  0.78060263    -0.03900
C869        C  0.19318507  0.52970218  0.78173604    -0.00200
C870        C  0.17031615  0.53067273  0.80333928    -0.02700
C871        C  0.18662868  0.46108651  0.84672192     0.36500
C872        C  0.19725319  0.55467989  0.76187475     0.40100
C873        C  0.22938039  0.45662644  0.80066686     0.39300
C874        C  0.14925370  0.55508510  0.80338371     0.36200
C875        C  0.16893035  0.54945085  0.87422596     0.36900
C876        C  0.07652704  0.46268046  0.86868757     0.40100
N877        N  0.24361924  0.43520939  0.80002730    -0.37900
N878        N  0.18515170  0.44263198  0.86454019    -0.39500
N879        N  0.20053605  0.57507397  0.74657710    -0.37300
N880        N  0.13249813  0.57461333  0.80338218    -0.39700
N881        N  0.11796269  0.44977736  0.80251585    -0.39400
N882        N  0.05954785  0.44339561  0.86823814    -0.37100
N883        N  0.12248187  0.56881438  0.93537693    -0.38100
N884        N  0.18867429  0.56582802  0.87613568    -0.39800
C885        C  0.14884892  0.48568720  0.11120206    -0.04700
C886        C  0.14603933  0.50461913  0.13604085     0.09400
C887        C  0.12054113  0.52269113  0.13894410    -0.02100
C888        C  0.09797907  0.52185517  0.11723713    -0.00400
C889        C  0.10068358  0.50291776  0.09219335    -0.04000
C890        C  0.12639419  0.48485049  0.08936156     0.03000
C891        C  0.16978104  0.50549220  0.15941533     0.09900
C892        C  0.11753915  0.54222928  0.16444680     0.35800
C893        C  0.12957943  0.46458253  0.06447847     0.39200
C894        C  0.18846308  0.53051627  0.16199252    -0.04300
C895        C  0.20861459  0.53279962  0.18584432     0.02800
C896        C  0.21208221  0.50903637  0.20619792    -0.03900
C897        C  0.19425635  0.48329314  0.20255792    -0.00200
C898        C  0.17272216  0.48192387  0.17981752    -0.02700
C899        C  0.18661163  0.55418967  0.14018755     0.36500
C900        C  0.19835313  0.45758469  0.22135843     0.40100
C901        C  0.22369530  0.56081109  0.19062591     0.39300
C902        C  0.15320545  0.45632074  0.17757104     0.36200
C903        C  0.17487483  0.46685521  0.10823284     0.36900
C904        C  0.07236108  0.54115888  0.12058508     0.40100
N905        N  0.23466615  0.58383830  0.19394741    -0.37900
N906        N  0.18517499  0.57299574  0.12273626    -0.39500
N907        N  0.20117455  0.43622446  0.23536488    -0.37300
N908        N  0.13760366  0.43594783  0.17568039    -0.39700
N909        N  0.11531544  0.55792654  0.18469932    -0.39400
N910        N  0.05200624  0.55658467  0.12364926    -0.37100
N911        N  0.13242753  0.44839183  0.04469868    -0.38100
N912        N  0.19550510  0.45164751  0.10598589    -0.39800
C913        C  0.84746236  0.49559212  0.11247635    -0.04700
C914        C  0.85614995  0.49039737  0.14201063     0.09400
C915        C  0.88639840  0.48555667  0.14824802    -0.02100
C916        C  0.90796360  0.48624998  0.12527713    -0.00400
C917        C  0.89984516  0.49340203  0.09546916    -0.04000
C918        C  0.86885538  0.49706175  0.08937266     0.03000
C919        C  0.83316695  0.48972348  0.16648154     0.09900
C920        C  0.89534060  0.47960357  0.17857556     0.35800
C921        C  0.85810841  0.50136034  0.05935179     0.39200
C922        C  0.81614076  0.46388926  0.17165379    -0.04300
C923        C  0.79276251  0.46412003  0.19276664     0.02800
C924        C  0.78722423  0.48967195  0.21034349    -0.03900
C925        C  0.80547742  0.51500576  0.20614587    -0.00200
C926        C  0.82768178  0.51528499  0.18381405    -0.02700
C927        C  0.82301310  0.43689819  0.15536130     0.36500
C928        C  0.80097762  0.54137838  0.22398425     0.40100
C929        C  0.77489729  0.43767049  0.19648484     0.39300
C930        C  0.84456725  0.54216572  0.17809221     0.36200
C931        C  0.81611577  0.49939864  0.10591855     0.36900
C932        C  0.93821210  0.47793624  0.13267474     0.40100
N933        N  0.76139390  0.41589632  0.19877713    -0.37900
N934        N  0.82875487  0.41532366  0.14254000    -0.39500
N935        N  0.79801477  0.56306723  0.23750562    -0.37300
N936        N  0.85798965  0.56358468  0.17327087    -0.39700
N937        N  0.90254658  0.47496806  0.20275880    -0.39400
N938        N  0.96223301  0.47100402  0.13864379    -0.37100
N939        N  0.84914726  0.50460756  0.03552068    -0.38100
N940        N  0.79108701  0.50228583  0.10085782    -0.39800
C941        C  0.53079775  0.32616166  0.80997428    -0.04700
C942        C  0.50673079  0.32827578  0.82993873     0.09400
C943        C  0.48388174  0.30682265  0.82901450    -0.02100
C944        C  0.48389939  0.28462461  0.80687381    -0.00400
C945        C  0.50802804  0.28221306  0.78692788    -0.04000
C946        C  0.53176541  0.30296909  0.78895477     0.03000
C947        C  0.50540037  0.35324563  0.85190234     0.09900
C948        C  0.45993106  0.30803016  0.85056411     0.35800
C949        C  0.55681911  0.30133296  0.76862072     0.39200
C950        C  0.48470093  0.37664720  0.84848453    -0.04300
C951        C  0.48294775  0.39960506  0.86989050     0.02800
C952        C  0.50261233  0.39977046  0.89434439    -0.03900
C953        C  0.52451702  0.37729815  0.89642888    -0.00200
C954        C  0.52527926  0.35370204  0.87593634    -0.02700
C955        C  0.46531549  0.37709108  0.82282630     0.36500
C956        C  0.54773702  0.37920299  0.91842681     0.40100
C957        C  0.46053013  0.42260136  0.86695494     0.39300
C958        C  0.54667071  0.32979025  0.87955195     0.36200
C959        C  0.55422327  0.34839273  0.81057606     0.36900
C960        C  0.45743673  0.26681720  0.80273589     0.40100
N961        N  0.44263693  0.44092263  0.86449577    -0.37900
N962        N  0.44991694  0.37735983  0.80230451    -0.39500
N963        N  0.56709643  0.38018378  0.93515086    -0.37300
N964        N  0.56376986  0.31077623  0.88230716    -0.39700
N965        N  0.44087853  0.30895531  0.86781627    -0.39400
N966        N  0.43566608  0.25352178  0.79963254    -0.37100
N967        N  0.57678692  0.30024910  0.75242639    -0.38100
N968        N  0.57290108  0.36608000  0.81119718    -0.39800
C969        C  0.47289470  0.67192095  0.82420128    -0.04700
C970        C  0.49655207  0.67401960  0.84442044     0.09400
C971        C  0.51817352  0.69646143  0.84105846    -0.02100
C972        C  0.51722194  0.71556195  0.81619161    -0.00400
C973        C  0.49337559  0.71354358  0.79583865    -0.04000
C974        C  0.47072139  0.69217712  0.80068345     0.03000
C975        C  0.49943210  0.65074759  0.86770396     0.09900
C976        C  0.54207562  0.69886160  0.86248902     0.35800
C977        C  0.44551781  0.69010156  0.78073719     0.39200
C978        C  0.51866125  0.62641284  0.86296558    -0.04300
C979        C  0.51808671  0.60195019  0.88241351     0.02800
C980        C  0.49757397  0.60131017  0.90617651    -0.03900
C981        C  0.47839297  0.62583838  0.91090346    -0.00200
C982        C  0.47969091  0.65065953  0.89198975    -0.02700
C983        C  0.53813992  0.62601718  0.83727676     0.36500
C984        C  0.45612700  0.62507255  0.93419867     0.40100
C985        C  0.53896094  0.57773573  0.87809750     0.39300
C986        C  0.45977598  0.67564563  0.89667428     0.36200
C987        C  0.45182429  0.64753149  0.82650844     0.36900
C988        C  0.54233389  0.73480569  0.81027093     0.40100
N989        N  0.55573791  0.55856527  0.87449591    -0.37900
N990        N  0.55353515  0.62566005  0.81668556    -0.39500
N991        N  0.43807331  0.62481885  0.95249270    -0.37300
N992        N  0.44377238  0.69546939  0.90033361    -0.39700
N993        N  0.56106793  0.70071782  0.87966038    -0.39400
N994        N  0.56308621  0.74940567  0.80607506    -0.37100
N995        N  0.42533672  0.68848510  0.76496222    -0.38100
N996        N  0.43539251  0.62781409  0.82830982    -0.39800
C997        C  0.53638705  0.63294465  0.12006104    -0.04700
C998        C  0.51467108  0.63676448  0.14234242     0.09400
C999        C  0.49149629  0.61570304  0.14529260    -0.02100
C1000       C  0.48864071  0.59245022  0.12449906    -0.00400
C1001       C  0.50951298  0.58962296  0.10125892    -0.04000
C1002       C  0.53405368  0.60915876  0.09991178     0.03000
C1003       C  0.51531277  0.66361148  0.16190375     0.09900
C1004       C  0.47031386  0.61826949  0.16949768     0.35800
C1005       C  0.55746808  0.60435498  0.07830886     0.39200
C1006       C  0.49266287  0.68524222  0.15952824    -0.04300
C1007       C  0.49066387  0.70845026  0.18047581     0.02800
C1008       C  0.51264799  0.71142959  0.20255152    -0.03900
C1009       C  0.53695548  0.69139354  0.20296996    -0.00200
C1010       C  0.53772662  0.66701079  0.18344000    -0.02700
C1011       C  0.47057014  0.68276745  0.13623074     0.36500
C1012       C  0.56060878  0.69505804  0.22456526     0.40100
C1013       C  0.46438917  0.72703756  0.18078580     0.39300
C1014       C  0.56080920  0.64468631  0.18655863     0.36200
C1015       C  0.56102998  0.65363215  0.11763457     0.36900
C1016       C  0.46352596  0.57231292  0.12634193     0.40100
N1017       N  0.44281378  0.74101021  0.18039306    -0.37900
N1018       N  0.45293026  0.68064303  0.11771290    -0.39500
N1019       N  0.57945371  0.69817171  0.24171730    -0.37300
N1020       N  0.57933138  0.62702437  0.18911601    -0.39700
N1021       N  0.45337879  0.62037405  0.18874518    -0.39400
N1022       N  0.44337154  0.55641603  0.12792629    -0.37100
N1023       N  0.57655982  0.60062220  0.06151063    -0.38100
N1024       N  0.58091332  0.66986711  0.11594112    -0.39800
C1025       C  0.49033464  0.32103759  0.18578253    -0.04700
C1026       C  0.47933122  0.31921668  0.15652399     0.09400
C1027       C  0.46210018  0.29424080  0.14826606    -0.02100
C1028       C  0.45457413  0.27217665  0.16939859    -0.00400
C1029       C  0.46542838  0.27407618  0.19874305    -0.04000
C1030       C  0.48393082  0.29838006  0.20653906     0.03000
C1031       C  0.48412803  0.34449574  0.13500118     0.09900
C1032       C  0.45109925  0.29189551  0.11812642     0.35800
C1033       C  0.49563049  0.30070091  0.23644850     0.39200
C1034       C  0.51257019  0.35024515  0.12283849    -0.04300
C1035       C  0.51684047  0.37425813  0.10296131     0.02800
C1036       C  0.49244766  0.39170334  0.09378837    -0.03900
C1037       C  0.46413501  0.38626933  0.10623728    -0.00200
C1038       C  0.46008219  0.36310194  0.12702852    -0.02700
C1039       C  0.53739378  0.33124952  0.13057473     0.36500
C1040       C  0.43905919  0.40457549  0.09760302     0.40100
C1041       C  0.54652699  0.38191331  0.09303856     0.39300
C1042       C  0.43108600  0.35845564  0.14036172     0.36200
C1043       C  0.50701142  0.34703989  0.19505093     0.36900
C1044       C  0.43385552  0.24900215  0.16114007     0.40100
N1045       N  0.57027675  0.38828359  0.08547319    -0.37900
N1046       N  0.55716619  0.31604205  0.13677957    -0.39500
N1047       N  0.41904324  0.41917054  0.09076446    -0.37300
N1048       N  0.40796175  0.35462265  0.15095993    -0.39700
N1049       N  0.44219415  0.29021895  0.09412104    -0.39400
N1050       N  0.41694122  0.23120596  0.15351325    -0.37100
N1051       N  0.50484979  0.30261181  0.26031901    -0.38100
N1052       N  0.52022994  0.36779501  0.20255999    -0.39800
C1053       C  0.64704685  0.12096320  0.00060471    -0.04700
C1054       C  0.64223227  0.14420633  0.98012777     0.09400
C1055       C  0.61653795  0.14419410  0.96240396    -0.02100
C1056       C  0.59591055  0.12082213  0.96480380    -0.00400
C1057       C  0.59997795  0.09812699  0.98617561    -0.04000
C1058       C  0.62556892  0.09846619  0.00425121     0.03000
C1059       C  0.66415887  0.16892939  0.97735798     0.09900
C1060       C  0.61138728  0.16835224  0.94166104     0.35800
C1061       C  0.62929296  0.07639911  0.02741991     0.39200
C1062       C  0.68266066  0.17072044  0.95220877    -0.04300
C1063       C  0.70401518  0.19346265  0.95010630     0.02800
C1064       C  0.70795840  0.21396904  0.97379809    -0.03900
C1065       C  0.68887007  0.21234733  0.99873741    -0.00200
C1066       C  0.66658004  0.19034343  0.00007847    -0.02700
C1067       C  0.68038216  0.14847457  0.92891726     0.36500
C1068       C  0.69337492  0.23122791  0.02435428     0.40100
C1069       C  0.72249197  0.19508914  0.92368600     0.39300
C1070       C  0.64660691  0.18898365  0.02538263     0.36200
C1071       C  0.67422516  0.12013606  0.01780452     0.36900
C1072       C  0.57135973  0.11973631  0.94417405     0.40100
N1073       N  0.73718272  0.19625735  0.90261127    -0.37900
N1074       N  0.67852975  0.13074198  0.91037488    -0.39500
N1075       N  0.69610729  0.24545326  0.04557131    -0.37300
N1076       N  0.63065128  0.18763871  0.04550299    -0.39700
N1077       N  0.60745713  0.18764572  0.92515354    -0.39400
N1078       N  0.55230426  0.11960592  0.92705241    -0.37100
N1079       N  0.63214021  0.05895678  0.04605855    -0.38100
N1080       N  0.69594497  0.11940333  0.03146479    -0.39800
C1081       C  0.39116207  0.84319612  0.99353324    -0.04700
C1082       C  0.36683718  0.84662102  0.01286137     0.09400
C1083       C  0.36260799  0.87360082  0.02820185    -0.02100
C1084       C  0.38293188  0.89713430  0.02453726    -0.00400
C1085       C  0.40735504  0.89404731  0.00483004    -0.04000
C1086       C  0.41110489  0.86691914  0.98909577     0.03000
C1087       C  0.34391637  0.82286318  0.01493072     0.09900
C1088       C  0.33685630  0.87728707  0.04733618     0.35800
C1089       C  0.43469178  0.86356998  0.96733647     0.39200
C1090       C  0.34410757  0.80243470  0.03865707    -0.04300
C1091       C  0.32080920  0.78168052  0.04171777     0.02800
C1092       C  0.29725275  0.78155334  0.02114162    -0.03900
C1093       C  0.29715533  0.80220808  0.99744488    -0.00200
C1094       C  0.32079633  0.82226894  0.99397246    -0.02700
C1095       C  0.36767323  0.80364813  0.06050288     0.36500
C1096       C  0.27219987  0.80355378  0.97709297     0.40100
C1097       C  0.31984461  0.76231614  0.06737869     0.39300
C1098       C  0.32095743  0.84303228  0.96931614     0.36200
C1099       C  0.39520937  0.81531770  0.97776148     0.36900
C1100       C  0.37854049  0.92419212  0.04152238     0.40100
N1101       N  0.31914910  0.74720734  0.08812901    -0.37900
N1102       N  0.38640270  0.80473510  0.07801325    -0.39500
N1103       N  0.25231561  0.80467264  0.96090121    -0.37300
N1104       N  0.32126564  0.85954327  0.94964000    -0.39700
N1105       N  0.31625169  0.88023864  0.06246027    -0.39400
N1106       N  0.37428803  0.94553452  0.05524441    -0.37100
N1107       N  0.45337910  0.86068434  0.94989603    -0.38100
N1108       N  0.39831817  0.79303915  0.96524414    -0.39800
C1109       C  0.64483574  0.87298728  0.96100776    -0.04700
C1110       C  0.64281463  0.84835504  0.98032086     0.09400
C1111       C  0.62212727  0.84851919  0.00375435    -0.02100
C1112       C  0.60317648  0.87310852  0.00770114    -0.00400
C1113       C  0.60407432  0.89717386  0.98749207    -0.04000
C1114       C  0.62528597  0.89721468  0.96434241     0.03000
C1115       C  0.66247426  0.82213334  0.97548071     0.09900
C1116       C  0.61992309  0.82301815  0.02332700     0.35800
C1117       C  0.62615829  0.92137192  0.94303145     0.39200
C1118       C  0.68875984  0.81922598  0.99198556    -0.04300
C1119       C  0.71028079  0.79818993  0.98341881     0.02800
C1120       C  0.70463997  0.77829475  0.95964269    -0.03900
C1121       C  0.67756284  0.78049008  0.94400421    -0.00200
C1122       C  0.65643074  0.80218262  0.95214854    -0.02700
C1123       C  0.69402586  0.83858613  0.01725112     0.36500
C1124       C  0.67245934  0.76297381  0.91755819     0.40100
C1125       C  0.73934694  0.79961546  0.99710521     0.39300
C1126       C  0.62875177  0.80482300  0.93590302     0.36200
C1127       C  0.66666353  0.87301853  0.93724720     0.36900
C1128       C  0.58320526  0.87380111  0.03298329     0.40100
N1129       N  0.76249711  0.80234940  0.00784408    -0.37900
N1130       N  0.69802250  0.85371694  0.03764824    -0.39500
N1131       N  0.66746628  0.75009959  0.89590479    -0.37300
N1132       N  0.60662167  0.80710090  0.92309356    -0.39700
N1133       N  0.61814288  0.80258650  0.03882023    -0.39400
N1134       N  0.56758044  0.87414775  0.05338877    -0.37100
N1135       N  0.62702386  0.94047189  0.92586550    -0.38100
N1136       N  0.68402394  0.87294726  0.91826983    -0.39800
C1137       C  0.35778774  0.11781008  0.98490352    -0.04700
C1138       C  0.36236811  0.14291582  0.00319711     0.09400
C1139       C  0.38690193  0.14354924  0.02255462    -0.02100
C1140       C  0.40737454  0.11974792  0.02281803    -0.00400
C1141       C  0.40333698  0.09485586  0.00387968    -0.04000
C1142       C  0.37780895  0.09364514  0.98563197     0.03000
C1143       C  0.34031569  0.16793920  0.00302596     0.09900
C1144       C  0.39092316  0.16869419  0.04237443     0.35800
C1145       C  0.37211357  0.06775110  0.96725394     0.39200
C1146       C  0.31840357  0.16952210  0.02534808    -0.04300
C1147       C  0.29510575  0.19036033  0.02317702     0.02800
C1148       C  0.29408758  0.21075577  0.99920256    -0.03900
C1149       C  0.31654785  0.20959617  0.97725441    -0.00200
C1150       C  0.33961965  0.18834465  0.97924822    -0.02700
C1151       C  0.31906848  0.14862504  0.04986430     0.36500
C1152       C  0.31430395  0.22773274  0.95083241     0.40100
C1153       C  0.27104804  0.18933147  0.04467042     0.39300
C1154       C  0.36177718  0.18628652  0.95590275     0.36200
C1155       C  0.33246463  0.11699864  0.96506510     0.36900
C1156       C  0.43189815  0.12052473  0.04358175     0.40100
N1157       N  0.25169839  0.18816054  0.06158112    -0.37900
N1158       N  0.31976263  0.13199478  0.06942815    -0.39500
N1159       N  0.31292941  0.24142722  0.92917184    -0.37300
N1160       N  0.37926687  0.18444832  0.93713094    -0.39700
N1161       N  0.39396918  0.18863646  0.05834449    -0.39400
N1162       N  0.45119768  0.12148519  0.06044220    -0.37100
N1163       N  0.36723841  0.04699224  0.95285382    -0.38100
N1164       N  0.31241153  0.11654169  0.94905537    -0.39800
C1165       C  0.48081857  0.14525023  0.87769416    -0.04700
C1166       C  0.49835964  0.14240366  0.85179356     0.09400
C1167       C  0.51516900  0.11620957  0.84761151    -0.02100
C1168       C  0.51483410  0.09329814  0.86917166    -0.00400
C1169       C  0.49779676  0.09631892  0.89562647    -0.04000
C1170       C  0.48065268  0.12256055  0.89952557     0.03000
C1171       C  0.49855722  0.16662185  0.82847409     0.09900
C1172       C  0.53277857  0.11277214  0.82081394     0.35800
C1173       C  0.46205761  0.12608997  0.92563733     0.39200
C1174       C  0.52313644  0.18593113  0.82548044    -0.04300
C1175       C  0.52346931  0.20826093  0.80327242     0.02800
C1176       C  0.49938831  0.21136259  0.78325106    -0.03900
C1177       C  0.47469164  0.19200596  0.78654393    -0.00200
C1178       C  0.47438321  0.16981144  0.80885861    -0.02700
C1179       C  0.54864524  0.18211901  0.84472313     0.36500
C1180       C  0.44892529  0.19534199  0.76770491     0.40100
C1181       C  0.54963545  0.22670515  0.80009190     0.39300
C1182       C  0.44934344  0.14964208  0.81136630     0.36200
C1183       C  0.46251560  0.17150948  0.88169409     0.36900
C1184       C  0.53279739  0.06697237  0.86410794     0.40100
N1185       N  0.57099695  0.24087193  0.79804315    -0.37900
N1186       N  0.56914934  0.17882191  0.85980753    -0.39500
N1187       N  0.42784744  0.19769486  0.75325462    -0.37300
N1188       N  0.42951985  0.13340190  0.81361294    -0.39700
N1189       N  0.54687263  0.11012784  0.79946812    -0.39400
N1190       N  0.54706635  0.04602452  0.85962462    -0.37100
N1191       N  0.44724322  0.12904801  0.94645562    -0.38100
N1192       N  0.44765438  0.19230092  0.88474969    -0.39800
C1193       C  0.51273540  0.84851386  0.87328086    -0.04700
C1194       C  0.49325727  0.85252862  0.84916194     0.09400
C1195       C  0.47551359  0.87829083  0.84772324    -0.02100
C1196       C  0.47696460  0.89986232  0.87049011    -0.00400
C1197       C  0.49703684  0.89635148  0.89448335    -0.04000
C1198       C  0.51497628  0.87042844  0.89561742     0.03000
C1199       C  0.49211396  0.82961897  0.82504012     0.09900
C1200       C  0.45607941  0.88276523  0.82247572     0.35800
C1201       C  0.53674802  0.86663467  0.91899843     0.39200
C1202       C  0.46925312  0.80821628  0.82453493    -0.04300
C1203       C  0.46963214  0.78527632  0.80313622     0.02800
C1204       C  0.49366784  0.78264904  0.78299437    -0.03900
C1205       C  0.51655713  0.80417244  0.78371285    -0.00200
C1206       C  0.51502184  0.82826363  0.80372389    -0.02700
C1207       C  0.44510537  0.81005467  0.84583639     0.36500
C1208       C  0.54271612  0.80069876  0.76532476     0.40100
C1209       C  0.44431244  0.76557587  0.80093012     0.39300
C1210       C  0.53667112  0.85211242  0.80208571     0.36200
C1211       C  0.53072118  0.82174818  0.87483766     0.36900
C1212       C  0.45703796  0.92516863  0.86937902     0.40100
N1213       N  0.42335017  0.75076326  0.79952127    -0.37900
N1214       N  0.42573898  0.81152538  0.86270581    -0.39500
N1215       N  0.56426523  0.79814971  0.75151427    -0.37300
N1216       N  0.55354172  0.87147536  0.80052285    -0.39700
N1217       N  0.44069850  0.88636958  0.80225901    -0.39400
N1218       N  0.44090398  0.94514972  0.86808268    -0.37100
N1219       N  0.55426414  0.86341487  0.93747045    -0.38100
N1220       N  0.54495191  0.80033009  0.87580173    -0.39800
C1221       C  0.53045270  0.80691447  0.16609883    -0.04700
C1222       C  0.50557157  0.82526484  0.16103674     0.09400
C1223       C  0.47984777  0.82147088  0.17855587    -0.02100
C1224       C  0.47926768  0.79995396  0.20141584    -0.00400
C1225       C  0.50431781  0.78165545  0.20680518    -0.04000
C1226       C  0.52983144  0.78520708  0.18874320     0.03000
C1227       C  0.50660466  0.84865270  0.13722118     0.09900
C1228       C  0.45384595  0.83966849  0.17286288     0.35800
C1229       C  0.55629681  0.76787563  0.19436337     0.39200
C1230       C  0.49237517  0.84380187  0.10982129    -0.04300
C1231       C  0.49319998  0.86579671  0.08743611     0.02800
C1232       C  0.50901391  0.89284842  0.09193055    -0.03900
C1233       C  0.52455603  0.89681651  0.11902495    -0.00200
C1234       C  0.52257214  0.87527525  0.14176904    -0.02700
C1235       C  0.47684593  0.81596199  0.10467647     0.36500
C1236       C  0.54371306  0.92243725  0.12326000     0.40100
C1237       C  0.47730105  0.86026116  0.06003001     0.39300
C1238       C  0.53680703  0.88058435  0.17012951     0.36200
C1239       C  0.55688415  0.81060495  0.14798794     0.36900
C1240       C  0.45224413  0.79596736  0.21840428     0.40100
N1241       N  0.46469759  0.85525156  0.03824961    -0.37900
N1242       N  0.46447446  0.79376702  0.10059247    -0.39500
N1243       N  0.55920299  0.94271164  0.12660632    -0.37300
N1244       N  0.54803364  0.88479945  0.19281789    -0.39700
N1245       N  0.43304989  0.85403107  0.16814474    -0.39400
N1246       N  0.43005455  0.79313238  0.23108805    -0.37100
N1247       N  0.57813282  0.75497637  0.19848376    -0.38100
N1248       N  0.57794904  0.81372937  0.13356127    -0.39800
C1249       C  0.51182656  0.14639316  0.11312209    -0.04700
C1250       C  0.50309006  0.13876814  0.14221790     0.09400
C1251       C  0.49951038  0.10845452  0.14949087    -0.02100
C1252       C  0.50098084  0.08626466  0.12725683    -0.00400
C1253       C  0.50822747  0.09384368  0.09734699    -0.04000
C1254       C  0.51552625  0.12408297  0.09118095     0.03000
C1255       C  0.49358997  0.16232581  0.16419776     0.09900
C1256       C  0.49307972  0.10023931  0.18000998     0.35800
C1257       C  0.52703036  0.13269526  0.06233642     0.39200
C1258       C  0.46328000  0.16431551  0.17218782    -0.04300
C1259       C  0.45394409  0.18434509  0.19440664     0.02800
C1260       C  0.47424284  0.20448632  0.20729316    -0.03900
C1261       C  0.50404684  0.20434131  0.19752331    -0.00200
C1262       C  0.51402694  0.18246207  0.17711583    -0.02700
C1263       C  0.44144137  0.14629404  0.15672793     0.36500
C1264       C  0.52414598  0.22741084  0.20734830     0.40100
C1265       C  0.42279860  0.18567283  0.20234791     0.39300
C1266       C  0.54529338  0.18068648  0.16960530     0.36200
C1267       C  0.51592192  0.17743548  0.10535556     0.36900
C1268       C  0.49378380  0.05592266  0.13562805     0.40100
N1269       N  0.39764732  0.18676893  0.20754694    -0.37900
N1270       N  0.42417421  0.13199450  0.14416256    -0.39500
N1271       N  0.54046171  0.24605876  0.21423566    -0.37300
N1272       N  0.57030982  0.17948985  0.16374579    -0.39700
N1273       N  0.48788792  0.09380233  0.20432742    -0.39400
N1274       N  0.48797174  0.03182728  0.14257877    -0.37100
N1275       N  0.53627418  0.13964920  0.03938544    -0.38100
N1276       N  0.51927135  0.20219096  0.09917199    -0.39800
C1277       C  0.33309202  0.95081529  0.17409848    -0.04700
C1278       C  0.34802908  0.97830999  0.17241337     0.09400
C1279       C  0.34040871  0.00140432  0.19219016    -0.02100
C1280       C  0.31640516  0.99784729  0.21211086    -0.00400
C1281       C  0.30084437  0.97048908  0.21341768    -0.04000
C1282       C  0.30994682  0.94675338  0.19472830     0.03000
C1283       C  0.37076929  0.98314515  0.14865605     0.09900
C1284       C  0.35674490  0.02922796  0.19126390     0.35800
C1285       C  0.29479328  0.91825802  0.19577619     0.39200
C1286       C  0.36375601  0.00031829  0.12343633    -0.04300
C1287       C  0.38441037  0.00315980  0.10003259     0.02800
C1288       C  0.41170248  0.98746009  0.10089291    -0.03900
C1289       C  0.41818566  0.96959313  0.12601961    -0.00200
C1290       C  0.39838966  0.96858297  0.15025716    -0.02700
C1291       C  0.33499138  0.01471577  0.12134966     0.36500
C1292       C  0.44407086  0.95045558  0.12649562     0.40100
C1293       C  0.37745015  0.02249724  0.07523804     0.39300
C1294       C  0.40623282  0.95229165  0.17692478     0.36200
C1295       C  0.34080964  0.92699422  0.15368688     0.36900
C1296       C  0.30632060  0.02347603  0.22878403     0.40100
N1297       N  0.37185812  0.03786967  0.05544571    -0.37900
N1298       N  0.31205501  0.02620459  0.11964231    -0.39500
N1299       N  0.46422344  0.93454777  0.12751627    -0.37300
N1300       N  0.41238986  0.93950296  0.19831357    -0.39700
N1301       N  0.36979300  0.05139721  0.19048401    -0.39400
N1302       N  0.29900355  0.04482883  0.24114046    -0.37100
N1303       N  0.28274874  0.89552023  0.19642524    -0.38100
N1304       N  0.34705208  0.90806126  0.13740561    -0.39800
C1305       C  0.61121264  0.98352725  0.83849241    -0.04700
C1306       C  0.63356863  0.00543324  0.83846979     0.09400
C1307       C  0.63737655  0.02389899  0.86347088    -0.02100
C1308       C  0.61867801  0.02078140  0.88833392    -0.00400
C1309       C  0.59661573  0.99839744  0.88882665    -0.04000
C1310       C  0.59344333  0.97929819  0.86397970     0.03000
C1311       C  0.65577544  0.00691937  0.81390861     0.09900
C1312       C  0.66093908  0.04595158  0.86367157     0.35800
C1313       C  0.57332221  0.95411372  0.86527738     0.39200
C1314       C  0.65267036  0.02775809  0.79074844    -0.04300
C1315       C  0.67663126  0.03325242  0.77119715     0.02800
C1316       C  0.70344787  0.01726725  0.77437681    -0.03900
C1317       C  0.70573230  0.99515744  0.79669549    -0.00200
C1318       C  0.68197726  0.99003696  0.81628927    -0.02700
C1319       C  0.62519318  0.04430743  0.78789139     0.36500
C1320       C  0.73283187  0.97790322  0.79996665     0.40100
C1321       C  0.67439136  0.05695125  0.74957329     0.39300
C1322       C  0.68492647  0.96833794  0.83995277     0.36200
C1323       C  0.60654345  0.96549223  0.81221064     0.36900
C1324       C  0.62201684  0.04109632  0.91309702     0.40100
N1325       N  0.67233325  0.07611137  0.73258329    -0.37900
N1326       N  0.60318101  0.05739151  0.78559304    -0.39500
N1327       N  0.75441798  0.96418291  0.80261916    -0.37300
N1328       N  0.68711207  0.95116376  0.85892830    -0.39700
N1329       N  0.67983226  0.06340655  0.86379160    -0.39400
N1330       N  0.62507047  0.05743711  0.93268858    -0.37100
N1331       N  0.55777228  0.93363756  0.86634966    -0.38100
N1332       N  0.60262262  0.95144242  0.79104572    -0.39800
C1333       C  0.31508711  0.02035030  0.82834761    -0.04700
C1334       C  0.33634117  0.99742739  0.82833434     0.09400
C1335       C  0.33695879  0.97657200  0.80493671    -0.02100
C1336       C  0.31537743  0.97775724  0.78226053    -0.00400
C1337       C  0.29400607  0.00079149  0.78213455    -0.04000
C1338       C  0.29466831  0.02264133  0.80492454     0.03000
C1339       C  0.35913954  0.99651947  0.85229074     0.09900
C1340       C  0.35930023  0.95332911  0.80481405     0.35800
C1341       C  0.27363860  0.04717891  0.80485521     0.39200
C1342       C  0.35500020  0.97866915  0.87767040    -0.04300
C1343       C  0.37611083  0.97914516  0.90080704     0.02800
C1344       C  0.40171903  0.99733752  0.89850443    -0.03900
C1345       C  0.40589291  0.01478720  0.87251988    -0.00200
C1346       C  0.38446543  0.01463391  0.84985004    -0.02700
C1347       C  0.32905607  0.95967075  0.87982142     0.36500
C1348       C  0.43221477  0.03296804  0.86849185     0.40100
C1349       C  0.37209090  0.95974969  0.92621390     0.39300
C1350       C  0.38829850  0.03332630  0.82383454     0.36200
C1351       C  0.31352535  0.04089532  0.85319496     0.36900
C1352       C  0.31398926  0.95390904  0.76069918     0.40100
N1353       N  0.36893704  0.94424642  0.94646065    -0.37900
N1354       N  0.30842473  0.94440458  0.88152252    -0.39500
N1355       N  0.45311907  0.04732260  0.86424876    -0.37300
N1356       N  0.39110851  0.04827433  0.80313235    -0.39700
N1357       N  0.37714196  0.93479568  0.80476456    -0.39400
N1358       N  0.31334378  0.93436568  0.74399220    -0.37100
N1359       N  0.25687685  0.06670431  0.80482194    -0.38100
N1360       N  0.31207852  0.05698639  0.87320948    -0.39800
C1361       C  0.47194553  0.14059208  0.37685103    -0.04700
C1362       C  0.48563602  0.13547619  0.34907272     0.09400
C1363       C  0.50602125  0.11188973  0.34597361    -0.02100
C1364       C  0.51126057  0.09234181  0.36984119    -0.00400
C1365       C  0.49677930  0.09672743  0.39751109    -0.04000
C1366       C  0.47802513  0.12177657  0.40116045     0.03000
C1367       C  0.47853282  0.15498405  0.32303759     0.09900
C1368       C  0.52152290  0.10765615  0.31802966     0.35800
C1369       C  0.46437956  0.12815172  0.42963221     0.39200
C1370       C  0.49892391  0.17679509  0.31354885    -0.04300
C1371       C  0.49155509  0.19626582  0.29010302     0.02800
C1372       C  0.46335497  0.19461647  0.27628982    -0.03900
C1373       C  0.44274199  0.17305767  0.28644838    -0.00200
C1374       C  0.45083229  0.15251871  0.30871625    -0.02700
C1375       C  0.52703312  0.18004186  0.32894627     0.36500
C1376       C  0.41226645  0.17345708  0.27625310     0.40100
C1377       C  0.51198060  0.22000780  0.28266952     0.39300
C1378       C  0.43035586  0.12916099  0.31751441     0.36200
C1379       C  0.45112124  0.16500544  0.38029281     0.36900
C1380       C  0.53184461  0.06781846  0.36572422     0.40100
N1381       N  0.52867650  0.23895565  0.27784973    -0.37900
N1382       N  0.54939278  0.18250333  0.34132977    -0.39500
N1383       N  0.38751628  0.17351508  0.26938295    -0.37300
N1384       N  0.41419797  0.11040875  0.32454426    -0.39700
N1385       N  0.53415383  0.10458892  0.29584854    -0.39400
N1386       N  0.54816259  0.04825084  0.36210907    -0.37100
N1387       N  0.45374055  0.13391944  0.45230322    -0.38100
N1388       N  0.43428139  0.18426749  0.38305576    -0.39800
C1389       C  0.51834105  0.83989596  0.29601634    -0.04700
C1390       C  0.49491735  0.84143230  0.31666153     0.09400
C1391       C  0.47105429  0.82135488  0.31514732    -0.02100
C1392       C  0.47159646  0.79829736  0.29421868    -0.00400
C1393       C  0.49635168  0.79496500  0.27499806    -0.04000
C1394       C  0.51944990  0.81629137  0.27551785     0.03000
C1395       C  0.49627482  0.86275189  0.34163501     0.09900
C1396       C  0.44681928  0.82345164  0.33639527     0.35800
C1397       C  0.54598288  0.81255883  0.25769871     0.39200
C1398       C  0.47914955  0.88878080  0.34068794    -0.04300
C1399       C  0.47855764  0.90790140  0.36529549     0.02800
C1400       C  0.49570097  0.90129125  0.39087258    -0.03900
C1401       C  0.51314344  0.87513302  0.39148685    -0.00200
C1402       C  0.51311934  0.85575278  0.36699628    -0.02700
C1403       C  0.46177444  0.89552159  0.31439882     0.36500
C1404       C  0.53196733  0.86848359  0.41671800     0.40100
C1405       C  0.45959517  0.93388873  0.36402603     0.39300
C1406       C  0.53015300  0.82835345  0.36793396     0.36200
C1407       C  0.54206790  0.86175810  0.29708801     0.36900
C1408       C  0.44752564  0.77677319  0.29401179     0.40100
N1409       N  0.44422438  0.95434964  0.36180281    -0.37900
N1410       N  0.44792147  0.90069620  0.29343358    -0.39500
N1411       N  0.54707484  0.86296757  0.43670391    -0.37300
N1412       N  0.54366582  0.80646809  0.36866776    -0.39700
N1413       N  0.42764476  0.82523426  0.35345265    -0.39400
N1414       N  0.42832149  0.75965548  0.29403847    -0.37100
N1415       N  0.56787770  0.81055236  0.24436322    -0.38100
N1416       N  0.56093458  0.87922420  0.29800478    -0.39800
C1417       C  0.48094481  0.10106777  0.64956360    -0.04700
C1418       C  0.49486480  0.12891947  0.64797993     0.09400
C1419       C  0.51042667  0.13727354  0.62210919    -0.02100
C1420       C  0.51213207  0.11769685  0.59768218    -0.00400
C1421       C  0.49796073  0.08954168  0.59894346    -0.04000
C1422       C  0.48243485  0.08139605  0.62531081     0.03000
C1423       C  0.49223295  0.15027949  0.67312531     0.09900
C1424       C  0.52464446  0.16622750  0.62077110     0.35800
C1425       C  0.46752961  0.05292391  0.62804366     0.39200
C1426       C  0.51389499  0.15080055  0.69561740    -0.04300
C1427       C  0.51489930  0.17473217  0.71585718     0.02800
C1428       C  0.49353360  0.19770860  0.71419613    -0.03900
C1429       C  0.47038476  0.19567944  0.69289668    -0.00200
C1430       C  0.46970624  0.17191332  0.67260797    -0.02700
C1431       C  0.53616179  0.12750780  0.69676883     0.36500
C1432       C  0.44846691  0.21923943  0.69016719     0.40100
C1433       C  0.54003582  0.17725310  0.73567906     0.39300
C1434       C  0.44678450  0.17047080  0.65001692     0.36200
C1435       C  0.46473207  0.09279939  0.67620183     0.36900
C1436       C  0.52947283  0.12633699  0.57190362     0.40100
N1437       N  0.56063303  0.17881110  0.75090041    -0.37900
N1438       N  0.55386199  0.10886691  0.69771867    -0.39500
N1439       N  0.43117898  0.23810609  0.68752696    -0.37300
N1440       N  0.42864127  0.16914836  0.63191119    -0.39700
N1441       N  0.53584125  0.18938599  0.61992992    -0.39400
N1442       N  0.54336671  0.13342748  0.55145956    -0.37100
N1443       N  0.45575699  0.03028599  0.63125669    -0.38100
N1444       N  0.45174102  0.08608988  0.69734188    -0.39800
C1445       C  0.47486031  0.83336592  0.69012344    -0.04700
C1446       C  0.49712398  0.83296437  0.66796731     0.09400
C1447       C  0.51996989  0.81157987  0.66934013    -0.02100
C1448       C  0.51996413  0.79004856  0.69190904    -0.00400
C1449       C  0.49658262  0.78899392  0.71298571    -0.04000
C1450       C  0.47436522  0.81124096  0.71243932     0.03000
C1451       C  0.49677087  0.85481527  0.64287229     0.09900
C1452       C  0.54309670  0.81111670  0.64684403     0.35800
C1453       C  0.45003364  0.81067761  0.73351047     0.39200
C1454       C  0.51801927  0.87781694  0.64192986    -0.04300
C1455       C  0.51922719  0.89723470  0.61746345     0.02800
C1456       C  0.49907629  0.89396994  0.59354335    -0.03900
C1457       C  0.47800846  0.87060835  0.59432341    -0.00200
C1458       C  0.47680432  0.85120316  0.61898178    -0.02700
C1459       C  0.53905418  0.88119221  0.66607658     0.36500
C1460       C  0.45697961  0.86691421  0.57027191     0.40100
C1461       C  0.54187168  0.92020697  0.61679558     0.39300
C1462       C  0.45508613  0.82736786  0.61977886     0.36200
C1463       C  0.45203824  0.85613986  0.68943230     0.36900
C1464       C  0.54386969  0.76834754  0.69294510     0.40100
N1465       N  0.55999606  0.93845146  0.61659923    -0.36100
N1466       N  0.55601391  0.88363465  0.68517965    -0.39500
N1467       N  0.44014500  0.86368809  0.55117254    -0.37300
N1468       N  0.43768754  0.80842744  0.62055978    -0.39700
N1469       N  0.56157982  0.81080868  0.62896251    -0.39400
N1470       N  0.56284687  0.75100719  0.69388600    -0.37100
N1471       N  0.43025134  0.81096738  0.74994818    -0.38100
N1472       N  0.43378795  0.87426448  0.68883566    -0.39800
C1473       C  0.35434360  0.97251054  0.37584046    -0.04700
C1474       C  0.35735283  0.98875743  0.34927075     0.09400
C1475       C  0.38152545  0.00841899  0.34579686    -0.02100
C1476       C  0.40259727  0.01186862  0.36879198    -0.00400
C1477       C  0.39998129  0.99517325  0.39542586    -0.04000
C1478       C  0.37547288  0.97558334  0.39873290     0.03000
C1479       C  0.33461399  0.98529518  0.32518750     0.09900
C1480       C  0.38479280  0.02487549  0.31830524     0.35800
C1481       C  0.37215354  0.95766397  0.42525923     0.39200
C1482       C  0.31218534  0.00690251  0.32149309    -0.04300
C1483       C  0.28975809  0.00287517  0.29995930     0.02800
C1484       C  0.28942499  0.97698842  0.28207169    -0.03900
C1485       C  0.31132948  0.95494314  0.28666025    -0.00200
C1486       C  0.33432592  0.95948760  0.30736841    -0.02700
C1487       C  0.31221840  0.03330552  0.34003231     0.36500
C1488       C  0.30864620  0.92633160  0.27212858     0.40100
C1489       C  0.26744536  0.02572024  0.29619317     0.39300
C1490       C  0.35770422  0.93749817  0.31044778     0.36200
C1491       C  0.32942350  0.95232848  0.37950940     0.36900
C1492       C  0.42661479  0.03306762  0.36502018     0.40100
N1493       N  0.25020013  0.04462937  0.29365166    -0.37900
N1494       N  0.31241129  0.05437488  0.35480779    -0.39500
N1495       N  0.30635394  0.90299961  0.26152221    -0.37300
N1496       N  0.37641158  0.91999899  0.31274674    -0.39700
N1497       N  0.38726786  0.03793428  0.29632603    -0.39400
N1498       N  0.44567917  0.05003341  0.36175513    -0.37100
N1499       N  0.36903864  0.94328839  0.44630420    -0.38100
N1500       N  0.30962435  0.93615074  0.38234243    -0.39800
C1501       C  0.65030763  0.98210182  0.61294939    -0.04700
C1502       C  0.64768975  0.00382450  0.63553339     0.09400
C1503       C  0.62191281  0.02162703  0.63668588    -0.02100
C1504       C  0.59953057  0.01863373  0.61496377    -0.00400
C1505       C  0.60187796  0.99689128  0.59227330    -0.04000
C1506       C  0.62742293  0.97840219  0.59164272     0.03000
C1507       C  0.67159767  0.00778439  0.65865345     0.09900
C1508       C  0.61816914  0.04286847  0.66069841     0.35800
C1509       C  0.62976168  0.95480167  0.56977844     0.39200
C1510       C  0.68990838  0.03332165  0.65848518    -0.04300
C1511       C  0.71026304  0.03846491  0.68180652     0.02800
C1512       C  0.71415061  0.01718975  0.70461183    -0.03900
C1513       C  0.69596082  0.99144918  0.70451698    -0.00200
C1514       C  0.67451669  0.98711151  0.68201071    -0.02700
C1515       C  0.68758268  0.05453313  0.63436482     0.36500
C1516       C  0.69956119  0.96873816  0.72694024     0.40100
C1517       C  0.72532362  0.06688363  0.68362129     0.39300
C1518       C  0.65498354  0.96147545  0.68314477     0.36200
C1519       C  0.67652811  0.96338434  0.61184058     0.36900
C1520       C  0.57464609  0.03900221  0.61563338     0.40100
N1521       N  0.73659996  0.08996608  0.68512983    -0.37900
N1522       N  0.68583558  0.07142583  0.61509129    -0.39500
N1523       N  0.70208978  0.94985475  0.74417156    -0.37300
N1524       N  0.63938307  0.94103778  0.68407484    -0.39700
N1525       N  0.61510213  0.05971084  0.67989910    -0.39400
N1526       N  0.55517220  0.05571786  0.61674529    -0.37100
N1527       N  0.63158803  0.93584404  0.55246668    -0.38100
N1528       N  0.69742626  0.94839786  0.61114276    -0.39800
C1529       C  0.37956982  0.97849071  0.64306206    -0.04700
C1530       C  0.35573345  0.99888737  0.64114565     0.09400
C1531       C  0.35431017  0.01812262  0.61641638    -0.02100
C1532       C  0.37646795  0.01711205  0.59399362    -0.00400
C1533       C  0.40044742  0.99663236  0.59580907    -0.04000
C1534       C  0.40169566  0.97730256  0.62064458     0.03000
C1535       C  0.33168380  0.99921036  0.66474519     0.09900
C1536       C  0.32971703  0.03880547  0.61383634     0.35800
C1537       C  0.42517446  0.95532189  0.62285747     0.39200
C1538       C  0.33031345  0.02210523  0.68624500    -0.04300
C1539       C  0.30848003  0.02149601  0.70904256     0.02800
C1540       C  0.28770882  0.99782141  0.71082276    -0.03900
C1541       C  0.28947655  0.97480319  0.68934983    -0.00200
C1542       C  0.31081800  0.97582411  0.66626731    -0.02700
C1543       C  0.35135699  0.04649230  0.68475914     0.36500
C1544       C  0.27071547  0.94878886  0.69183617     0.40100
C1545       C  0.30697132  0.04595133  0.72991131     0.39300
C1546       C  0.31135632  0.95257390  0.64391188     0.36200
C1547       C  0.38106305  0.95831951  0.66812134     0.36900
C1548       C  0.37473930  0.03779638  0.56936903     0.40100
N1549       N  0.30633706  0.06589038  0.74615981    -0.37900
N1550       N  0.36802723  0.06604948  0.68344022    -0.39500
N1551       N  0.25658220  0.92734824  0.69329491    -0.37300
N1552       N  0.31177934  0.93400158  0.62611662    -0.39700
N1553       N  0.31015275  0.05537103  0.61174913    -0.39400
N1554       N  0.37319505  0.05431051  0.54975481    -0.37100
N1555       N  0.44380620  0.93770339  0.62485692    -0.38100
N1556       N  0.38197062  0.94213116  0.68804142    -0.39800
C1557       C  0.66005834  0.97211373  0.19049912    -0.04700
C1558       C  0.66394626  0.99365374  0.16805695     0.09400
C1559       C  0.68841619  0.01310818  0.16919331    -0.02100
C1560       C  0.71036201  0.00927859  0.19097973    -0.00400
C1561       C  0.70777297  0.98616941  0.21224105    -0.04000
C1562       C  0.68220943  0.96796690  0.21227700     0.03000
C1563       C  0.64366947  0.99465000  0.14184830     0.09900
C1564       C  0.69138564  0.03662524  0.14734097     0.35800
C1565       C  0.67984489  0.94329104  0.23278605     0.39200
C1566       C  0.62181805  0.01691345  0.13984138    -0.04300
C1567       C  0.60425626  0.01921605  0.11414682     0.02800
C1568       C  0.60725027  0.99832173  0.09080689    -0.03900
C1569       C  0.62984557  0.97656632  0.09241040    -0.00200
C1570       C  0.64808961  0.97485571  0.11784143    -0.02700
C1571       C  0.61738026  0.03741954  0.16434875     0.36500
C1572       C  0.63403426  0.95561465  0.06827235     0.40100
C1573       C  0.58418669  0.04418233  0.11114898     0.39300
C1574       C  0.67143191  0.95267461  0.11947868     0.36200
C1575       C  0.63345717  0.95394367  0.19078329     0.36900
C1576       C  0.73640105  0.02839757  0.19057366     0.40100
N1577       N  0.56888499  0.06469537  0.10892337    -0.37900
N1578       N  0.61380094  0.05370884  0.18393332    -0.39500
N1579       N  0.63761230  0.93895069  0.04899852    -0.37300
N1580       N  0.69009749  0.93504094  0.12099045    -0.39700
N1581       N  0.69354230  0.05551598  0.13005191    -0.39400
N1582       N  0.75725113  0.04345804  0.19012415    -0.37100
N1583       N  0.67776450  0.92328128  0.24877977    -0.38100
N1584       N  0.61208119  0.93964679  0.19118102    -0.39800
C1585       C  0.67411825  0.01232453  0.30520217    -0.04700
C1586       C  0.66885552  0.98961584  0.32609683     0.09400
C1587       C  0.68656533  0.96378098  0.32545629    -0.02100
C1588       C  0.70896952  0.96035301  0.30368020    -0.00400
C1589       C  0.71444793  0.98306928  0.28256700    -0.04000
C1590       C  0.69668088  0.00909425  0.28351073     0.03000
C1591       C  0.64441858  0.99268994  0.34872186     0.09900
C1592       C  0.68159909  0.94065066  0.34735358     0.35800
C1593       C  0.70209294  0.03325094  0.26302354     0.39200
C1594       C  0.61556749  0.98235434  0.34234815    -0.04300
C1595       C  0.59298262  0.98338666  0.36423791     0.02800
C1596       C  0.59870875  0.99597045  0.39266253    -0.03900
C1597       C  0.62745219  0.00794725  0.39814161    -0.00200
C1598       C  0.65025692  0.00549899  0.37662724    -0.02700
C1599       C  0.60924122  0.97046222  0.31308928     0.36500
C1600       C  0.63366429  0.02383954  0.42544634     0.40100
C1601       C  0.56420871  0.97058431  0.35737501     0.39300
C1602       C  0.68001001  0.01599687  0.38321043     0.36200
C1603       C  0.65646980  0.03929201  0.30641173     0.36900
C1604       C  0.72497054  0.93248221  0.30209397     0.40100
N1605       N  0.54130718  0.96039632  0.35165735    -0.37900
N1606       N  0.60425982  0.96119814  0.28965710    -0.39500
N1607       N  0.63891000  0.03678429  0.44700750    -0.37300
N1608       N  0.70382199  0.02416993  0.38838760    -0.39700
N1609       N  0.67763763  0.92234537  0.36495579    -0.39400
N1610       N  0.73687305  0.90968791  0.30133870    -0.37100
N1611       N  0.70605044  0.05320830  0.24731952    -0.38100
N1612       N  0.64242832  0.06082860  0.30754331    -0.39800
C1613       C  0.32227660  0.81734160  0.52576891    -0.04700
C1614       C  0.32499699  0.83520748  0.50029986     0.09400
C1615       C  0.30545455  0.83116895  0.47623705    -0.02100
C1616       C  0.28437236  0.80794457  0.47684239    -0.00400
C1617       C  0.28236432  0.78920158  0.50190701    -0.04000
C1618       C  0.30143977  0.79410120  0.52640879     0.03000
C1619       C  0.34963399  0.85725789  0.49847247     0.09900
C1620       C  0.30768012  0.85050142  0.45058641     0.35800
C1621       C  0.30080629  0.77421289  0.55178137     0.39200
C1622       C  0.37657504  0.84949755  0.48446141    -0.04300
C1623       C  0.40040976  0.86984904  0.48379000     0.02800
C1624       C  0.39765097  0.89798144  0.49795388    -0.03900
C1625       C  0.37090859  0.90480167  0.51335258    -0.00200
C1626       C  0.34681904  0.88487547  0.51280274    -0.02700
C1627       C  0.37989511  0.82021782  0.47122259     0.36500
C1628       C  0.36838246  0.93141752  0.53141425     0.40100
C1629       C  0.42758613  0.86146256  0.46849189     0.39300
C1630       C  0.31910717  0.89246854  0.52751550     0.36200
C1631       C  0.34157691  0.82243903  0.55103928     0.36900
C1632       C  0.26714031  0.80158846  0.45047858     0.40100
N1633       N  0.44928313  0.85451239  0.45650896    -0.37900
N1634       N  0.38259192  0.79681999  0.46081766    -0.39500
N1635       N  0.36592970  0.95234478  0.54617947    -0.37300
N1636       N  0.29696853  0.89839462  0.53920648    -0.39700
N1637       N  0.30945289  0.86605673  0.43022088    -0.39400
N1638       N  0.25399095  0.79665121  0.42900690    -0.37100
N1639       N  0.30027686  0.75836761  0.57199365    -0.38100
N1640       N  0.35684541  0.82672690  0.57121717    -0.39800
C1641       C  0.69367019  0.83819826  0.51092274    -0.04700
C1642       C  0.67246710  0.83393705  0.48836081     0.09400
C1643       C  0.67502732  0.80974715  0.46874507    -0.02100
C1644       C  0.69764810  0.78865478  0.47293462    -0.00400
C1645       C  0.71742466  0.79135839  0.49726356    -0.04000
C1646       C  0.71576998  0.81659603  0.51583847     0.03000
C1647       C  0.64628902  0.85394788  0.48646144     0.09900
C1648       C  0.65361907  0.80604354  0.44498276     0.35800
C1649       C  0.73484531  0.81931403  0.54151850     0.39200
C1650       C  0.64714105  0.87899783  0.46790194    -0.04300
C1651       C  0.62251007  0.89817086  0.46658721     0.02800
C1652       C  0.59771739  0.89353972  0.48549294    -0.03900
C1653       C  0.59670116  0.86785937  0.50356542    -0.00200
C1654       C  0.62063437  0.84769790  0.50335078    -0.02700
C1655       C  0.67362110  0.88519747  0.45052469     0.36500
C1656       C  0.57185084  0.86278801  0.52349818     0.40100
C1657       C  0.62250987  0.92193139  0.44490787     0.39300
C1658       C  0.61903528  0.82055124  0.52065767     0.36200
C1659       C  0.69201378  0.86437741  0.52970455     0.36900
C1660       C  0.70007431  0.76371580  0.45253415     0.40100
N1661       N  0.62303556  0.94035575  0.42704508    -0.37900
N1662       N  0.69485834  0.89017835  0.43688966    -0.39500
N1663       N  0.55211306  0.85877859  0.53950127    -0.37300
N1664       N  0.61765621  0.79874766  0.53421145    -0.39700
N1665       N  0.63645477  0.80315260  0.42612179    -0.39400
N1666       N  0.70206572  0.74399750  0.43611393    -0.37100
N1667       N  0.74956414  0.82204453  0.56234763    -0.38100
N1668       N  0.69081515  0.88536166  0.54455381    -0.39800
C1669       C  0.69069026  0.16464419  0.49061374    -0.04700
C1670       C  0.67294654  0.15343243  0.51375898     0.09400
C1671       C  0.67661487  0.16400606  0.54290525    -0.02100
C1672       C  0.69877646  0.18510840  0.54915035    -0.00400
C1673       C  0.71673737  0.19664326  0.52595834    -0.04000
C1674       C  0.71187586  0.18688613  0.49650325     0.03000
C1675       C  0.64978235  0.13079057  0.50746096     0.09900
C1676       C  0.65643500  0.15424159  0.56612903     0.35800
C1677       C  0.72535864  0.20211026  0.47162558     0.39200
C1678       C  0.65478828  0.10099814  0.51542343    -0.04300
C1679       C  0.63228732  0.07971593  0.51142027     0.02800
C1680       C  0.60446318  0.08824196  0.49902879    -0.03900
C1681       C  0.60045670  0.11793872  0.48928537    -0.00200
C1682       C  0.62274803  0.13925561  0.49426872    -0.02700
C1683       C  0.68305706  0.09244582  0.52840360     0.36500
C1684       C  0.57393706  0.12656464  0.47314080     0.40100
C1685       C  0.63825442  0.04931226  0.52055649     0.39300
C1686       C  0.61762366  0.17012957  0.48644105     0.36200
C1687       C  0.68588917  0.15441523  0.46042501     0.36900
C1688       C  0.70195873  0.19589074  0.57934537     0.40100
N1689       N  0.64366205  0.02514775  0.52755425    -0.37900
N1690       N  0.70552569  0.08572101  0.53886990    -0.39500
N1691       N  0.55285790  0.13335961  0.46014485    -0.37300
N1692       N  0.61345127  0.19475191  0.48026331    -0.39700
N1693       N  0.64005218  0.14663428  0.58443377    -0.39400
N1694       N  0.70420314  0.20453252  0.60343326    -0.37100
N1695       N  0.73451362  0.21399548  0.45079053    -0.38100
N1696       N  0.68180825  0.14645885  0.43635054    -0.39800
C1697       C  0.31087790  0.16175100  0.50871851    -0.04700
C1698       C  0.33281594  0.16195423  0.48634025     0.09400
C1699       C  0.33191903  0.18346919  0.46373621    -0.02100
C1700       C  0.30972859  0.20543612  0.46405929    -0.00400
C1701       C  0.28838409  0.20617966  0.48725625    -0.04000
C1702       C  0.28917292  0.18432082  0.50969626     0.03000
C1703       C  0.35749282  0.13993174  0.48708670     0.09900
C1704       C  0.35423090  0.18328862  0.44044353     0.35800
C1705       C  0.26974225  0.18646709  0.53527253     0.39200
C1706       C  0.35563879  0.11387438  0.46999270    -0.04300
C1707       C  0.37849303  0.09257530  0.47128864     0.02800
C1708       C  0.40317681  0.09684762  0.49038338    -0.03900
C1709       C  0.40547583  0.12382694  0.50658895    -0.00200
C1710       C  0.38279927  0.14538774  0.50461516    -0.02700
C1711       C  0.33024509  0.10927044  0.45070321     0.36500
C1712       C  0.43082859  0.12950738  0.52560856     0.40100
C1713       C  0.37681752  0.06699479  0.45179393     0.39300
C1714       C  0.38556464  0.17349381  0.52024670     0.36200
C1715       C  0.31103208  0.13849703  0.53100077     0.36900
C1716       C  0.30936464  0.22776830  0.44077212     0.40100
N1717       N  0.37471199  0.04699871  0.43578712    -0.37900
N1718       N  0.31005125  0.10577971  0.43524330    -0.39500
N1719       N  0.45108025  0.13431057  0.54064976    -0.37300
N1720       N  0.38772928  0.19606209  0.53243381    -0.39700
N1721       N  0.37197377  0.18314387  0.42182832    -0.39400
N1722       N  0.30904798  0.24565617  0.42232941    -0.37100
N1723       N  0.25485837  0.18795862  0.55618028    -0.38100
N1724       N  0.31106263  0.11978578  0.54860862    -0.39800
C1725       C  0.80773754  0.99372372  0.65962188    -0.04700
C1726       C  0.82879287  0.01611674  0.65387139     0.09400
C1727       C  0.82695685  0.04355446  0.66879266    -0.02100
C1728       C  0.80424896  0.04853474  0.68972097    -0.00400
C1729       C  0.78393648  0.02546426  0.69702406    -0.04000
C1730       C  0.78595521  0.99795360  0.68177547     0.03000
C1731       C  0.85293945  0.01119246  0.63174100     0.09900
C1732       C  0.84932474  0.06621751  0.66337220     0.35800
C1733       C  0.76818148  0.97265877  0.69059955     0.39200
C1734       C  0.85012828  0.02337252  0.60323419    -0.04300
C1735       C  0.87400530  0.02182202  0.58312795     0.02800
C1736       C  0.90059519  0.00653166  0.59088849    -0.03900
C1737       C  0.90249581  0.99279079  0.61907202    -0.00200
C1738       C  0.87905491  0.99585565  0.63968282    -0.02700
C1739       C  0.82243608  0.03761641  0.59472556     0.36500
C1740       C  0.92780464  0.97427280  0.62649113     0.40100
C1741       C  0.87081101  0.03669443  0.55479263     0.39300
C1742       C  0.88183632  0.98344738  0.66921846     0.36200
C1743       C  0.80924250  0.96585609  0.64338286     0.36900
C1744       C  0.80269942  0.07721816  0.70449368     0.40100
N1745       N  0.86725539  0.04868419  0.53240213    -0.37900
N1746       N  0.80024662  0.04874768  0.58808054    -0.39500
N1747       N  0.94784471  0.95926298  0.63231727    -0.37300
N1748       N  0.88409439  0.97364317  0.69282814    -0.39700
N1749       N  0.86740738  0.08401332  0.65908132    -0.39400
N1750       N  0.80179453  0.10012795  0.71620819    -0.37100
N1751       N  0.75516770  0.95139961  0.69689916    -0.38100
N1752       N  0.81040535  0.94363632  0.63043955    -0.39800
C1753       C  0.19920830  0.01664204  0.65471194    -0.04700
C1754       C  0.17750206  0.99418573  0.65242828     0.09400
C1755       C  0.17714854  0.97044083  0.67270009    -0.02100
C1756       C  0.19763390  0.96982323  0.69611684    -0.00400
C1757       C  0.21839684  0.99332237  0.69971679    -0.04000
C1758       C  0.21936680  0.01653763  0.67862093     0.03000
C1759       C  0.15325890  0.99658936  0.63021655     0.09900
C1760       C  0.15456202  0.94747246  0.67034990     0.35800
C1761       C  0.23894546  0.04175571  0.68278869     0.39200
C1762       C  0.15553009  0.98143239  0.60308276    -0.04300
C1763       C  0.13131578  0.98108254  0.58341861     0.02800
C1764       C  0.10486171  0.99713574  0.59028585    -0.03900
C1765       C  0.10311342  0.01290404  0.61749829    -0.00200
C1766       C  0.12720470  0.01241965  0.63738458    -0.02700
C1767       C  0.18304836  0.96639003  0.59534664     0.36500
C1768       C  0.07701159  0.03033852  0.62498915     0.40100
C1769       C  0.13392078  0.96340099  0.55657143     0.39300
C1770       C  0.12545504  0.02847564  0.66528499     0.36200
C1771       C  0.19968026  0.04061354  0.63320739     0.36900
C1772       C  0.19646181  0.94541093  0.71720380     0.40100
N1773       N  0.13678921  0.94922143  0.53532162    -0.37900
N1774       N  0.20505283  0.95464500  0.58901915    -0.39500
N1775       N  0.05623641  0.04423662  0.63112768    -0.37300
N1776       N  0.12432889  0.04132669  0.68751718    -0.39700
N1777       N  0.13643104  0.92930513  0.66857642    -0.39400
N1778       N  0.19552266  0.92592819  0.73394379    -0.37100
N1779       N  0.25414538  0.06230019  0.68571869    -0.38100
N1780       N  0.19993119  0.05967894  0.61598277    -0.39800
C1781       C  0.19757644  0.96141745  0.33751472    -0.04700
C1782       C  0.17446712  0.98213040  0.33323160     0.09400
C1783       C  0.17468826  0.00086303  0.30828152    -0.02100
C1784       C  0.19682534  0.99751278  0.28654725    -0.00400
C1785       C  0.21915204  0.97550713  0.28973283    -0.04000
C1786       C  0.22007601  0.95818092  0.31585843     0.03000
C1787       C  0.14956759  0.98429165  0.35489405     0.09900
C1788       C  0.15166090  0.02318052  0.30471641     0.35800
C1789       C  0.24322846  0.93627479  0.32019993     0.39200
C1790       C  0.15078758  0.00553319  0.37778209    -0.04300
C1791       C  0.12674005  0.00867926  0.39747670     0.02800
C1792       C  0.10157364  0.98994052  0.39489051    -0.03900
C1793       C  0.10024090  0.96888434  0.37156670    -0.00200
C1794       C  0.12418249  0.96620638  0.35154514    -0.02700
C1795       C  0.17685054  0.02427806  0.38090960     0.36500
C1796       C  0.07468653  0.94943700  0.36843766     0.40100
C1797       C  0.12763449  0.03207469  0.41964946     0.39300
C1798       C  0.12275938  0.94483209  0.32744535     0.36200
C1799       C  0.19758124  0.94297178  0.36390668     0.36900
C1800       C  0.19638679  0.01658773  0.26055322     0.40100
N1801       N  0.12867361  0.05096342  0.43706131    -0.37900
N1802       N  0.19764656  0.03919461  0.38341767    -0.39500
N1803       N  0.05433463  0.93394503  0.36571582    -0.37300
N1804       N  0.12153411  0.92778501  0.30822795    -0.39700
N1805       N  0.13333084  0.04101243  0.30198117    -0.39400
N1806       N  0.19619802  0.03174220  0.23982036    -0.37100
N1807       N  0.26151113  0.91872922  0.32454299    -0.38100
N1808       N  0.19733231  0.92834464  0.38501566    -0.39800
C1809       C  0.87863167  0.00002961  0.35023937    -0.04700
C1810       C  0.85336344  0.98317900  0.35810532     0.09400
C1811       C  0.85210513  0.96864462  0.38563213    -0.02100
C1812       C  0.87621658  0.97045516  0.40520664    -0.00400
C1813       C  0.90147029  0.98785676  0.39785745    -0.04000
C1814       C  0.90252531  0.00271166  0.37020971     0.03000
C1815       C  0.82839511  0.97958001  0.33687700     0.09900
C1816       C  0.82585897  0.95165134  0.39374483     0.35800
C1817       C  0.92756645  0.02160204  0.36260449     0.39200
C1818       C  0.82551248  0.95284898  0.32090730    -0.04300
C1819       C  0.80295197  0.94983495  0.29964180     0.02800
C1820       C  0.78370910  0.97403787  0.29335986    -0.03900
C1821       C  0.78615059  0.00048887  0.31026986    -0.00200
C1822       C  0.80795913  0.00285039  0.33254332    -0.02700
C1823       C  0.84670647  0.92892098  0.32550157     0.36500
C1824       C  0.76884886  0.02659895  0.30304680     0.40100
C1825       C  0.80077430  0.92220540  0.28306132     0.39300
C1826       C  0.81026598  0.02970324  0.35033048     0.36200
C1827       C  0.88000711  0.01454552  0.32153906     0.36900
C1828       C  0.87486123  0.95354085  0.43251346     0.40100
N1829       N  0.79925424  0.90012256  0.26992425    -0.37900
N1830       N  0.86371860  0.90999715  0.32924870    -0.39500
N1831       N  0.75609961  0.04835403  0.29805991    -0.37300
N1832       N  0.81222230  0.05103362  0.36459628    -0.39700
N1833       N  0.80498352  0.93807994  0.40020174    -0.39400
N1834       N  0.87271883  0.93974672  0.45403006    -0.37100
N1835       N  0.94745414  0.03673810  0.35648340    -0.38100
N1836       N  0.88111957  0.02615557  0.29866401    -0.39800
C1837       C  0.14796401  0.87398038  0.47718437    -0.04700
C1838       C  0.14417650  0.84867808  0.49533301     0.09400
C1839       C  0.11908682  0.84705126  0.51414365    -0.02100
C1840       C  0.09795034  0.87035753  0.51475435    -0.00400
C1841       C  0.10117699  0.89549799  0.49598487    -0.04000
C1842       C  0.12662700  0.89715857  0.47732710     0.03000
C1843       C  0.16761011  0.82462701  0.49601777     0.09900
C1844       C  0.11533003  0.82150561  0.53342723     0.35800
C1845       C  0.13111679  0.92253093  0.45797325     0.39200
C1846       C  0.18742780  0.82287957  0.52012235    -0.04300
C1847       C  0.20966929  0.80064967  0.52096165     0.02800
C1848       C  0.21269750  0.77980156  0.49746940    -0.03900
C1849       C  0.19287659  0.78184906  0.47316958    -0.00200
C1850       C  0.17037342  0.80391552  0.47258668    -0.02700
C1851       C  0.18469286  0.84404164  0.54434757     0.36500
C1852       C  0.19630759  0.76218549  0.44795599     0.40100
C1853       C  0.22828798  0.79886537  0.54698494     0.39300
C1854       C  0.14994329  0.80533967  0.44779828     0.36200
C1855       C  0.17433041  0.87639933  0.45875139     0.36900
C1856       C  0.07361308  0.86893898  0.53589165     0.40100
N1857       N  0.24204678  0.79858658  0.56861900    -0.37900
N1858       N  0.18223711  0.86083553  0.56367889    -0.39500
N1859       N  0.19875389  0.74699646  0.42735519    -0.37300
N1860       N  0.13366550  0.80649509  0.42799845    -0.39700
N1861       N  0.11245322  0.80124463  0.54898279    -0.39400
N1862       N  0.05427098  0.86787442  0.55281892    -0.37100
N1863       N  0.13521067  0.94269118  0.44255546    -0.38100
N1864       N  0.19542283  0.87822592  0.44413659    -0.39800
C1865       C  0.81226919  0.82727609  0.48021297    -0.04700
C1866       C  0.83194371  0.83145129  0.50420982     0.09400
C1867       C  0.82939637  0.81301517  0.52930548    -0.02100
C1868       C  0.80677117  0.79134186  0.53094855    -0.00400
C1869       C  0.78749179  0.78623251  0.50663990    -0.04000
C1870       C  0.79031106  0.80470922  0.48127113     0.03000
C1871       C  0.85567567  0.85502490  0.50307470     0.09900
C1872       C  0.85043200  0.81623274  0.55346479     0.35800
C1873       C  0.77133253  0.80047981  0.45575418     0.39200
C1874       C  0.85340574  0.88091920  0.52075905    -0.04300
C1875       C  0.87639099  0.90238258  0.52057442     0.02800
C1876       C  0.90140313  0.89881603  0.50171934    -0.03900
C1877       C  0.90343925  0.87285381  0.48393613    -0.00200
C1878       C  0.88118386  0.85074996  0.48536032    -0.02700
C1879       C  0.82773879  0.88504461  0.53987039     0.36500
C1880       C  0.92800333  0.86896706  0.46344125     0.40100
C1881       C  0.87505007  0.92708813  0.54127412     0.39300
C1882       C  0.88506541  0.82291561  0.46948944     0.36200
C1883       C  0.81497094  0.84602416  0.45415231     0.36900
C1884       C  0.80183256  0.77651460  0.55896694     0.40100
N1885       N  0.87395279  0.94640108  0.55823448    -0.37900
N1886       N  0.80740899  0.88822085  0.55531954    -0.39500
N1887       N  0.94739294  0.86558002  0.44689369    -0.37300
N1888       N  0.88825107  0.80052320  0.45719633    -0.39700
N1889       N  0.86736228  0.81885520  0.57256980    -0.39400
N1890       N  0.79825030  0.76622389  0.58219847    -0.37100
N1891       N  0.75685023  0.79786977  0.43473657    -0.38100
N1892       N  0.81726024  0.86083073  0.43328474    -0.39800
C1893       C  0.88432155  0.14567320  0.50903869    -0.04700
C1894       C  0.85621400  0.13948953  0.49679084     0.09400
C1895       C  0.85197718  0.11303956  0.48056729    -0.02100
C1896       C  0.87564094  0.09264604  0.47689566    -0.00400
C1897       C  0.90335455  0.09756072  0.49120624    -0.04000
C1898       C  0.90744325  0.12449390  0.50721094     0.03000
C1899       C  0.83080150  0.16042481  0.50228612     0.09900
C1900       C  0.82296937  0.10661937  0.46814693     0.35800
C1901       C  0.93474225  0.13008733  0.52331562     0.39200
C1902       C  0.82431173  0.18325001  0.48193411    -0.04300
C1903       C  0.80220642  0.20463003  0.48851572     0.02800
C1904       C  0.78604151  0.20317707  0.51550810    -0.03900
C1905       C  0.79234279  0.17977820  0.53556993    -0.00200
C1906       C  0.81437553  0.15842282  0.52885280    -0.02700
C1907       C  0.84076095  0.18488999  0.45427752     0.36500
C1908       C  0.77803935  0.17889902  0.56434905     0.40100
C1909       C  0.79658292  0.22801463  0.46726579     0.39300
C1910       C  0.82077321  0.13465002  0.54964656     0.36200
C1911       C  0.88933206  0.17394874  0.52378127     0.36900
C1912       C  0.87129009  0.06681498  0.45805182     0.40100
N1913       N  0.79283682  0.24613251  0.44944783    -0.37900
N1914       N  0.85378983  0.18616501  0.43215619    -0.39500
N1915       N  0.76739770  0.17775808  0.58770353    -0.37300
N1916       N  0.82596453  0.11564418  0.56613405    -0.39700
N1917       N  0.79972886  0.10153279  0.45845649    -0.39400
N1918       N  0.86763804  0.04633530  0.44290343    -0.37100
N1919       N  0.95631123  0.13482163  0.53641544    -0.38100
N1920       N  0.89342476  0.19663698  0.53521928    -0.39800
C1921       C  0.12710522  0.14081090  0.47031485    -0.04700
C1922       C  0.15225200  0.13712719  0.48857140     0.09400
C1923       C  0.15417371  0.11193850  0.50705900    -0.02100
C1924       C  0.13116007  0.09053468  0.50733610    -0.00400
C1925       C  0.10530706  0.09453017  0.48971538    -0.04000
C1926       C  0.10351572  0.12001490  0.47122960     0.03000
C1927       C  0.17572936  0.16091957  0.48978274     0.09900
C1928       C  0.17976280  0.10834702  0.52626381     0.35800
C1929       C  0.07767333  0.12486281  0.45267264     0.39200
C1930       C  0.17544340  0.18184865  0.51304559    -0.04300
C1931       C  0.19679201  0.20484513  0.51405456     0.02800
C1932       C  0.21782951  0.20835333  0.49084998    -0.03900
C1933       C  0.21807148  0.18707184  0.46754228    -0.00200
C1934       C  0.19774527  0.16301055  0.46758821    -0.02700
C1935       C  0.15309251  0.17951370  0.53620095     0.36500
C1936       C  0.23802196  0.19041700  0.44255597     0.40100
C1937       C  0.19783502  0.22356389  0.54013270     0.39300
C1938       C  0.19955857  0.14013063  0.44492724     0.36200
C1939       C  0.12555327  0.16624505  0.45059478     0.36900
C1940       C  0.13410887  0.06483210  0.52652824     0.40100
N1941       N  0.19794564  0.23733687  0.56182049    -0.37900
N1942       N  0.13526532  0.17752512  0.55463065    -0.39500
N1943       N  0.25336590  0.19240266  0.42202464    -0.37300
N1944       N  0.20114200  0.12166341  0.42707941    -0.39700
N1945       N  0.20004164  0.10560780  0.54175809    -0.39400
N1946       N  0.13699141  0.04435206  0.54177077    -0.37100
N1947       N  0.05703431  0.12902170  0.43798152    -0.38100
N1948       N  0.12459430  0.18645059  0.43474189    -0.39800
C1949       C  0.01855041  0.63741083  0.12333684    -0.04700
C1950       C  0.99661920  0.63461358  0.14556174     0.09400
C1951       C  0.97412134  0.61308040  0.14295292    -0.02100
C1952       C  0.97336204  0.59440325  0.11793537    -0.00400
C1953       C  0.99545363  0.59695358  0.09567249    -0.04000
C1954       C  0.01811164  0.61846324  0.09852251     0.03000
C1955       C  0.99668734  0.65545078  0.17108766     0.09900
C1956       C  0.95195439  0.61011841  0.16621333     0.35800
C1957       C  0.04200585  0.61998414  0.07693727     0.39200
C1958       C  0.97748235  0.68012848  0.17084855    -0.04300
C1959       C  0.98060492  0.70241074  0.19237339     0.02800
C1960       C  0.00353724  0.70046201  0.21377094    -0.03900
C1961       C  0.02184665  0.67501574  0.21479081    -0.00200
C1962       C  0.01769872  0.65204412  0.19397138    -0.02700
C1963       C  0.95517639  0.68308070  0.14781542     0.36500
C1964       C  0.04652871  0.67345135  0.23530101     0.40100
C1965       C  0.96047231  0.72770530  0.19211482     0.39300
C1966       C  0.03549424  0.62518772  0.19545600     0.36200
C1967       C  0.04178967  0.65961308  0.12625176     0.36900
C1968       C  0.94952079  0.57292617  0.11506682     0.40100
N1969       N  0.94440416  0.74780612  0.19204794    -0.37900
N1970       N  0.93732813  0.68542045  0.12952891    -0.39500
N1971       N  0.06656890  0.67192180  0.25125624    -0.37300
N1972       N  0.04942723  0.60359138  0.19667878    -0.39700
N1973       N  0.93437611  0.60791515  0.18485861    -0.39400
N1974       N  0.93020937  0.55606631  0.11321309    -0.37100
N1975       N  0.06132407  0.62116599  0.06001681    -0.38100
N1976       N  0.06036803  0.67723349  0.12870968    -0.39800
C1977       C  0.98764060  0.86655189  0.35699727    -0.04700
C1978       C  0.00237078  0.84013104  0.36503656     0.09400
C1979       C  0.01598291  0.83768325  0.39290473    -0.02100
C1980       C  0.01661752  0.86231157  0.41215088    -0.00400
C1981       C  0.00207606  0.88926475  0.40421736    -0.04000
C1982       C  0.98683969  0.89082357  0.37675710     0.03000
C1983       C  0.00633936  0.81604109  0.34280309     0.09900
C1984       C  0.02977404  0.80976238  0.40144901     0.35800
C1985       C  0.96954156  0.91688811  0.36891919     0.39200
C1986       C  0.03311031  0.81459574  0.32668577    -0.04300
C1987       C  0.03608084  0.79426424  0.30324952     0.02800
C1988       C  0.01218818  0.77516341  0.29576369    -0.03900
C1989       C  0.98564439  0.77612176  0.31256925    -0.00200
C1990       C  0.98294793  0.79627856  0.33637681    -0.02700
C1991       C  0.05702258  0.83528519  0.33321437     0.36500
C1992       C  0.95985294  0.75911134  0.30358696     0.40100
C1993       C  0.06324004  0.79435197  0.28575345     0.39300
C1994       C  0.95554411  0.79788642  0.35331670     0.36200
C1995       C  0.97374350  0.86883691  0.32805606     0.36900
C1996       C  0.03330544  0.85972546  0.43951704     0.40100
N1997       N  0.08482965  0.79455558  0.27175782    -0.37900
N1998       N  0.07597439  0.85187110  0.33842393    -0.39500
N1999       N  0.93862277  0.74631697  0.29682068    -0.37300
N2000       N  0.93364716  0.79926221  0.36675108    -0.39700
N2001       N  0.04059180  0.78741919  0.40818172    -0.39400
N2002       N  0.04674340  0.85691693  0.46117636    -0.37100
N2003       N  0.95556526  0.93748674  0.36246020    -0.38100
N2004       N  0.96274307  0.87052330  0.30494053    -0.39800
C2005       C  0.99555075  0.39254754  0.83848838    -0.04700
C2006       C  0.00326086  0.36292173  0.84424192     0.09400
C2007       C  0.01294023  0.35438520  0.87263572    -0.02100
C2008       C  0.01397545  0.37533530  0.89580452    -0.00400
C2009       C  0.00383170  0.40486354  0.89104773    -0.04000
C2010       C  0.99545447  0.41350449  0.86166821     0.03000
C2011       C  0.99998611  0.34003043  0.82075039     0.09900
C2012       C  0.02173184  0.32377177  0.87793022     0.35800
C2013       C  0.98627125  0.44368801  0.85461774     0.39200
C2014       C  0.02449030  0.33213759  0.80301036    -0.04300
C2015       C  0.02272506  0.30723784  0.78414770     0.02800
C2016       C  0.99604507  0.29075229  0.78231048    -0.03900
C2017       C  0.97148544  0.29887870  0.80031767    -0.00200
C2018       C  0.97320353  0.32406777  0.81871831    -0.02700
C2019       C  0.05180295  0.34917014  0.80500241     0.36500
C2020       C  0.94487447  0.28067305  0.80117743     0.40100
C2021       C  0.04950664  0.29664138  0.76975188     0.39300
C2022       C  0.94761832  0.33341980  0.83607998     0.36200
C2023       C  0.98758236  0.40134237  0.80854223     0.36900
C2024       C  0.02676869  0.36640952  0.92395668     0.40100
N2025       N  0.07148621  0.28832798  0.75930250    -0.37900
N2026       N  0.07350002  0.36288514  0.80657249    -0.39500
N2027       N  0.92359599  0.26625072  0.80217253    -0.37300
N2028       N  0.92728078  0.34122097  0.84978789    -0.39700
N2029       N  0.02866469  0.29932994  0.88199981    -0.39400
N2030       N  0.03720675  0.35912758  0.94623601    -0.37100
N2031       N  0.97890984  0.46764732  0.84876447    -0.38100
N2032       N  0.98145218  0.40841425  0.78465085    -0.39800
C2033       C  0.02848537  0.17489041  0.67374400    -0.04700
C2034       C  0.00694099  0.17604380  0.65115312     0.09400
C2035       C  0.98495224  0.19841568  0.65180739    -0.02100
C2036       C  0.98304495  0.21810854  0.67619271    -0.00400
C2037       C  0.00387585  0.21618625  0.69949440    -0.04000
C2038       C  0.02716704  0.19505025  0.69764399     0.03000
C2039       C  0.00585523  0.15192513  0.62826522     0.09900
C2040       C  0.96346528  0.20018893  0.62795901     0.35800
C2041       C  0.04914036  0.19314224  0.72111845     0.39200
C2042       C  0.98705237  0.12720248  0.63261552    -0.04300
C2043       C  0.98666202  0.10374098  0.61183546     0.02800
C2044       C  0.00575087  0.10437259  0.58681755    -0.03900
C2045       C  0.02446570  0.12939878  0.58243868    -0.00200
C2046       C  0.02424275  0.15316663  0.60297163    -0.02700
C2047       C  0.96813293  0.12585605  0.65869363     0.36500
C2048       C  0.04470916  0.13052446  0.55738334     0.40100
C2049       C  0.96571306  0.07951695  0.61582479     0.39300
C2050       C  0.04296586  0.17899707  0.59819941     0.36200
C2051       C  0.05105206  0.15183408  0.67322343     0.36900
C2052       C  0.95800795  0.23822349  0.67844157     0.40100
N2053       N  0.94886930  0.06035003  0.61911747    -0.37900
N2054       N  0.95304191  0.12471340  0.67947952    -0.39500
N2055       N  0.06099099  0.13175793  0.53752082    -0.37300
N2056       N  0.05778584  0.19969134  0.59442125    -0.39700
N2057       N  0.94637518  0.20158836  0.60887427    -0.39400
N2058       N  0.93760592  0.25381505  0.67988450    -0.37100
N2059       N  0.06664028  0.19172004  0.73983417    -0.38100
N2060       N  0.06895206  0.13335458  0.67291704    -0.39800
C2061       C  0.98884026  0.68027843  0.81492555    -0.04700
C2062       C  0.00433262  0.65308895  0.81415481     0.09400
C2063       C  0.02247486  0.64603035  0.78948575    -0.02100
C2064       C  0.02545176  0.66648090  0.76589657    -0.00400
C2065       C  0.01062205  0.69410868  0.76716769    -0.04000
C2066       C  0.99259944  0.70103801  0.79195799     0.03000
C2067       C  0.00319415  0.63331340  0.84071788     0.09900
C2068       C  0.03913615  0.61843693  0.78907873     0.35800
C2069       C  0.97924711  0.73024249  0.79481665     0.39200
C2070       C  0.97844174  0.61474574  0.84551790    -0.04300
C2071       C  0.97632863  0.59793046  0.87179671     0.02800
C2072       C  0.99952831  0.59864139  0.89293311    -0.03900
C2073       C  0.02411345  0.61755285  0.88821538    -0.00200
C2074       C  0.02551920  0.63543020  0.86255798    -0.02700
C2075       C  0.95497961  0.61329373  0.82353325     0.36500
C2076       C  0.04875459  0.61747312  0.90881726     0.40100
C2077       C  0.94984111  0.58047394  0.87742162     0.39300
C2078       C  0.04960386  0.65654541  0.85882280     0.36200
C2079       C  0.97008897  0.68742984  0.84019563     0.36900
C2080       C  0.04495315  0.65994766  0.74106311     0.40100
N2081       N  0.92849059  0.56687548  0.88187030    -0.37900
N2082       N  0.93625020  0.61217958  0.80602159    -0.39500
N2083       N  0.06874511  0.61724348  0.92488324    -0.37300
N2084       N  0.06855319  0.67368889  0.85585778    -0.39700
N2085       N  0.05269814  0.59656480  0.78877186    -0.39400
N2086       N  0.06052133  0.65499128  0.72119396    -0.37100
N2087       N  0.96880758  0.75354664  0.79791037    -0.38100
N2088       N  0.95513145  0.69292092  0.86038410    -0.39800
C2089       C  0.98614615  0.82575822  0.68408627    -0.04700
C2090       C  0.00430220  0.82932625  0.65882301     0.09400
C2091       C  0.02487892  0.80695584  0.65096621    -0.02100
C2092       C  0.02762803  0.78128611  0.66860397    -0.00400
C2093       C  0.01012370  0.77807480  0.69439633    -0.04000
C2094       C  0.98937997  0.80040068  0.70212568     0.03000
C2095       C  0.00153497  0.85644815  0.64004806     0.09900
C2096       C  0.04359407  0.81067671  0.62500655     0.35800
C2097       C  0.97157975  0.79754590  0.72878538     0.39200
C2098       C  0.02225669  0.87987282  0.64275162    -0.04300
C2099       C  0.02156549  0.90391296  0.62265545     0.02800
C2100       C  0.99963580  0.90482311  0.60028298    -0.03900
C2101       C  0.97744372  0.88264964  0.59943946    -0.00200
C2102       C  0.97878121  0.85819705  0.61875401    -0.02700
C2103       C  0.04454578  0.87887857  0.66591629     0.36500
C2104       C  0.95265908  0.88530068  0.57918435     0.40100
C2105       C  0.04408324  0.92693049  0.62435884     0.39300
C2106       C  0.95709761  0.83447662  0.61612255     0.36200
C2107       C  0.96444256  0.84841043  0.69166712     0.36900
C2108       C  0.04830947  0.75797303  0.66025172     0.40100
N2109       N  0.06211369  0.94521305  0.62592572    -0.37900
N2110       N  0.06223599  0.87808935  0.68448726    -0.39500
N2111       N  0.93249828  0.88724051  0.56348319    -0.37300
N2112       N  0.93962620  0.81577352  0.61361037    -0.39700
N2113       N  0.05865693  0.81380304  0.60440977    -0.39400
N2114       N  0.06453483  0.73913821  0.65358386    -0.37100
N2115       N  0.95707037  0.79582101  0.74992042    -0.38100
N2116       N  0.94702623  0.86641471  0.69759135    -0.39800
C2117       C  0.13977594  0.61752540  0.51480663    -0.04700
C2118       C  0.13563997  0.64184248  0.49546544     0.09400
C2119       C  0.11191754  0.64160265  0.47516603    -0.02100
C2120       C  0.09238627  0.61717239  0.47412310    -0.00400
C2121       C  0.09613841  0.59282664  0.49375350    -0.04000
C2122       C  0.11999080  0.59316753  0.51415082     0.03000
C2123       C  0.15815421  0.66623381  0.49426980     0.09900
C2124       C  0.10802659  0.66631948  0.45482803     0.35800
C2125       C  0.12380363  0.56901463  0.53512063     0.39200
C2126       C  0.17977771  0.66581356  0.47167779    -0.04300
C2127       C  0.20231432  0.68744532  0.47114307     0.02800
C2128       C  0.20410191  0.70923831  0.49390544    -0.03900
C2129       C  0.18230852  0.70962207  0.51652256    -0.00200
C2130       C  0.15897968  0.68858759  0.51626883    -0.02700
C2131       C  0.17975818  0.64193051  0.44992348     0.36500
C2132       C  0.18544818  0.72935642  0.54174717     0.40100
C2133       C  0.22455216  0.68620305  0.44775847     0.39300
C2134       C  0.13657941  0.68900785  0.53943925     0.36200
C2135       C  0.16484250  0.61741021  0.53498129     0.36900
C2136       C  0.06899617  0.61692838  0.45203016     0.40100
N2137       N  0.24227256  0.68494451  0.42915395    -0.37900
N2138       N  0.17967496  0.62267580  0.43285570    -0.39500
N2139       N  0.18778083  0.74452499  0.56236350    -0.37300
N2140       N  0.11877633  0.68932821  0.55799961    -0.39700
N2141       N  0.10497120  0.68589533  0.43846635    -0.39400
N2142       N  0.05051996  0.61719858  0.43424305    -0.37100
N2143       N  0.12697764  0.54991154  0.55200981    -0.38100
N2144       N  0.18492428  0.61746999  0.55096339    -0.39800
C2145       C  0.86497077  0.36118674  0.53061711    -0.04700
C2146       C  0.86200687  0.34153760  0.50632172     0.09400
C2147       C  0.87714650  0.34757991  0.47954119    -0.02100
C2148       C  0.89453827  0.37351556  0.47689099    -0.00400
C2149       C  0.89833479  0.39254768  0.50155271    -0.04000
C2150       C  0.88426872  0.38575350  0.52869653     0.03000
C2151       C  0.84117908  0.31575950  0.50849932     0.09900
C2152       C  0.87467633  0.32715134  0.45472309     0.35800
C2153       C  0.89147414  0.40246352  0.55524652     0.39200
C2154       C  0.81353145  0.31724653  0.49399545    -0.04300
C2155       C  0.79182111  0.29557580  0.49957812     0.02800
C2156       C  0.79734396  0.27248350  0.52013825    -0.03900
C2157       C  0.82572751  0.26964503  0.53299069    -0.00200
C2158       C  0.84775585  0.29120987  0.52697950    -0.02700
C2159       C  0.80683309  0.34191132  0.47436488     0.36500
C2160       C  0.83181241  0.24561467  0.55350532     0.40100
C2161       C  0.76339613  0.29731220  0.48443973     0.39300
C2162       C  0.87680492  0.28882916  0.54062758     0.36200
C2163       C  0.84762956  0.35646986  0.55738207     0.36900
C2164       C  0.90851142  0.38067846  0.44875261     0.40100
N2165       N  0.74080232  0.29841540  0.47229476    -0.37900
N2166       N  0.80153832  0.36149473  0.45860192    -0.39500
N2167       N  0.83692890  0.22648438  0.56987537    -0.37300
N2168       N  0.89996191  0.28695179  0.55157124    -0.39700
N2169       N  0.87259776  0.31085198  0.43494269    -0.39400
N2170       N  0.91939810  0.38648163  0.42621101    -0.37100
N2171       N  0.89778839  0.41504235  0.57673310    -0.38100
N2172       N  0.83349186  0.35280889  0.57854074    -0.39800
C2173       C  0.13613086  0.36505055  0.47478803    -0.04700
C2174       C  0.13038207  0.33984343  0.49252814     0.09400
C2175       C  0.10480689  0.33880550  0.51043015    -0.02100
C2176       C  0.08549359  0.36333225  0.51152911    -0.00400
C2177       C  0.09151214  0.38916984  0.49441072    -0.04000
C2178       C  0.11662717  0.38957212  0.47546958     0.03000
C2179       C  0.15303796  0.31585123  0.49476857     0.09900
C2180       C  0.09871503  0.31261959  0.52827958     0.35800
C2181       C  0.12192443  0.41451877  0.45574595     0.39200
C2182       C  0.17241585  0.31577518  0.51922642    -0.04300
C2183       C  0.19685622  0.29644737  0.51956933     0.02800
C2184       C  0.20205149  0.27685824  0.49544948    -0.03900
C2185       C  0.18162412  0.27577839  0.47172397    -0.00200
C2186       C  0.15690077  0.29508198  0.47159502    -0.02700
C2187       C  0.16815826  0.33687447  0.54330891     0.36500
C2188       C  0.18746554  0.25717029  0.44609596     0.40100
C2189       C  0.21763137  0.29798764  0.54415803     0.39300
C2190       C  0.13622205  0.29474827  0.44696271     0.36200
C2191       C  0.16244533  0.36581705  0.45613131     0.36900
C2192       C  0.05967327  0.36172126  0.53079259     0.40100
N2193       N  0.23417956  0.29918782  0.56373470    -0.37900
N2194       N  0.16472396  0.35368510  0.56247816    -0.39500
N2195       N  0.19193400  0.24269825  0.42531326    -0.37300
N2196       N  0.11971408  0.29462846  0.42731835    -0.39700
N2197       N  0.09376349  0.29189261  0.54266567    -0.39400
N2198       N  0.03905527  0.35978285  0.54602414    -0.37100
N2199       N  0.12632048  0.43418205  0.43977615    -0.38100
N2200       N  0.18342349  0.36621160  0.44124611    -0.39800
C2201       C  0.89346603  0.65043689  0.51316539    -0.04700
C2202       C  0.86304760  0.64668420  0.50788248     0.09400
C2203       C  0.85191330  0.61863000  0.49944021    -0.02100
C2204       C  0.87135445  0.59423503  0.49582934    -0.00400
C2205       C  0.90221081  0.59750744  0.50169340    -0.04000
C2206       C  0.91296564  0.62610821  0.51064280     0.03000
C2207       C  0.84258108  0.67249771  0.51134289     0.09900
C2208       C  0.82028451  0.61497581  0.49437021     0.35800
C2209       C  0.94398833  0.63128817  0.51777802     0.39200
C2210       C  0.83790882  0.69208724  0.48745708    -0.04300
C2211       C  0.81560213  0.71399712  0.48929813     0.02800
C2212       C  0.79881662  0.71725138  0.51565858    -0.03900
C2213       C  0.80545804  0.69906186  0.54046243    -0.00200
C2214       C  0.82735315  0.67683698  0.53827384    -0.02700
C2215       C  0.85556475  0.68903982  0.46065109     0.36500
C2216       C  0.78855648  0.70182870  0.56778382     0.40100
C2217       C  0.80792151  0.73048210  0.46282558     0.39300
C2218       C  0.83376734  0.65783519  0.56347354     0.36200
C2219       C  0.90465317  0.67967032  0.52124456     0.36900
C2220       C  0.85933721  0.56624086  0.48515338     0.40100
N2221       N  0.80217808  0.74275629  0.44104653    -0.37900
N2222       N  0.86989529  0.68679496  0.43941981    -0.39500
N2223       N  0.77524326  0.70381219  0.58969737    -0.37300
N2224       N  0.83899000  0.64272454  0.58356397    -0.39700
N2225       N  0.79505243  0.61204167  0.49045839    -0.39400
N2226       N  0.84964148  0.54398767  0.47658336    -0.37100
N2227       N  0.96862360  0.63610288  0.52328936    -0.38100
N2228       N  0.91346158  0.70303033  0.52749577    -0.39800
C2229       C  0.13641506  0.50913910  0.36742423    -0.04700
C2230       C  0.13111388  0.49061675  0.34266951     0.09400
C2231       C  0.10716189  0.47048369  0.34329447    -0.02100
C2232       C  0.08867452  0.46873944  0.36861133    -0.00400
C2233       C  0.09325189  0.48805706  0.39315037    -0.04000
C2234       C  0.11738512  0.50820833  0.39235854     0.03000
C2235       C  0.15185604  0.49171368  0.31661796     0.09900
C2236       C  0.10136162  0.45183889  0.31765293     0.35800
C2237       C  0.12198131  0.52903112  0.41652341     0.39200
C2238       C  0.17596903  0.47179423  0.31518622    -0.04300
C2239       C  0.19916131  0.47667769  0.29474720     0.02800
C2240       C  0.19819609  0.50128731  0.27512168    -0.03900
C2241       C  0.17272334  0.51960722  0.27475947    -0.00200
C2242       C  0.14956726  0.51475912  0.29546613    -0.02700
C2243       C  0.17770415  0.44719244  0.33591965     0.36500
C2244       C  0.17133430  0.54492196  0.25496008     0.40100
C2245       C  0.22484944  0.45710462  0.29492292     0.39300
C2246       C  0.12403198  0.53439610  0.29612703     0.36200
C2247       C  0.16151284  0.52938740  0.36705192     0.36900
C2248       C  0.06548274  0.44636275  0.36953788     0.40100
N2249       N  0.24533160  0.44153931  0.29494043    -0.37900
N2250       N  0.17907826  0.42752384  0.35239962    -0.39500
N2251       N  0.16992139  0.56528687  0.23935286    -0.37300
N2252       N  0.10363093  0.55004824  0.29672805    -0.39700
N2253       N  0.09662692  0.43710849  0.29712489    -0.39400
N2254       N  0.04724178  0.42823942  0.36996441    -0.37100
N2255       N  0.12568213  0.54576417  0.43569260    -0.38100
N2256       N  0.18158677  0.54546164  0.36659641    -0.39800
C2257       C  0.88580858  0.50265150  0.34546251    -0.04700
C2258       C  0.85964068  0.48581442  0.34762310     0.09400
C2259       C  0.85274793  0.47060614  0.37411148    -0.02100
C2260       C  0.87181927  0.47281477  0.39880643    -0.00400
C2261       C  0.89790721  0.49036098  0.39698324    -0.04000
C2262       C  0.90446646  0.50562022  0.37017023     0.03000
C2263       C  0.83731031  0.48792254  0.32351342     0.09900
C2264       C  0.82582925  0.45292359  0.37591654     0.35800
C2265       C  0.92969657  0.52558301  0.36796640     0.39200
C2266       C  0.83290071  0.46420379  0.30358752    -0.04300
C2267       C  0.80949330  0.46549790  0.28297924     0.02800
C2268       C  0.79254169  0.49178767  0.28016649    -0.03900
C2269       C  0.79775909  0.51593877  0.29964037    -0.00200
C2270       C  0.81975784  0.51377949  0.32151181    -0.02700
C2271       C  0.85188758  0.43817166  0.30489890     0.36500
C2272       C  0.77908244  0.54227140  0.29874929     0.40100
C2273       C  0.80021330  0.43836956  0.26832786     0.39300
C2274       C  0.82359517  0.53769806  0.34287238     0.36200
C2275       C  0.89313113  0.51747972  0.31776555     0.36900
C2276       C  0.86447006  0.45688603  0.42582505     0.40100
N2277       N  0.79264636  0.41603897  0.25805097    -0.37900
N2278       N  0.86713018  0.41745683  0.30568115    -0.39500
N2279       N  0.76420325  0.56326537  0.29834375    -0.37300
N2280       N  0.82670420  0.55659854  0.36004023    -0.39700
N2281       N  0.80442501  0.43871119  0.37716072    -0.39400
N2282       N  0.85826646  0.44428885  0.44734604    -0.37100
N2283       N  0.94956184  0.54171677  0.36553305    -0.38100
N2284       N  0.89889325  0.52923254  0.29566293    -0.39800
C2285       C  0.11009398  0.51118095  0.64687553    -0.04700
C2286       C  0.13706353  0.49567914  0.64414644     0.09400
C2287       C  0.14287839  0.47882663  0.61836385    -0.02100
C2288       C  0.12164588  0.47732963  0.59535025    -0.00400
C2289       C  0.09487821  0.49389357  0.59734287    -0.04000
C2290       C  0.08928141  0.51075893  0.62355239     0.03000
C2291       C  0.16029448  0.49903741  0.66759016     0.09900
C2292       C  0.17109313  0.46351075  0.61532798     0.35800
C2293       C  0.06244033  0.52835682  0.62677269     0.39200
C2294       C  0.16211468  0.47873566  0.69132662    -0.04300
C2295       C  0.18563909  0.48075504  0.71195295     0.02800
C2296       C  0.20620292  0.50452083  0.71023445    -0.03900
C2297       C  0.20306435  0.52586465  0.68724777    -0.00200
C2298       C  0.18058827  0.52277188  0.66580818    -0.02700
C2299       C  0.13996011  0.45548200  0.69419970     0.36500
C2300       C  0.22363715  0.55064375  0.68487045     0.40100
C2301       C  0.19007740  0.45658523  0.73265519     0.39300
C2302       C  0.17867149  0.54367313  0.64135551     0.36200
C2303       C  0.10412310  0.52809367  0.67370840     0.36900
C2304       C  0.12707252  0.45778598  0.57027062     0.40100
N2305       N  0.19305536  0.43644464  0.74831550    -0.37900
N2306       N  0.12211822  0.43711713  0.69672111    -0.39500
N2307       N  0.24012773  0.57029067  0.68281457    -0.37300
N2308       N  0.17712200  0.56018909  0.62174726    -0.39700
N2309       N  0.19371394  0.45151495  0.61285412    -0.39400
N2310       N  0.13145118  0.44199163  0.55043576    -0.37100
N2311       N  0.04105739  0.54230567  0.62991634    -0.38100
N2312       N  0.09956149  0.54146931  0.69519359    -0.39800
C2313       C  0.80970297  0.49303376  0.67356799    -0.04700
C2314       C  0.83703406  0.47770691  0.67282456     0.09400
C2315       C  0.84311002  0.45600263  0.69470012    -0.02100
C2316       C  0.82204951  0.44984335  0.71726461    -0.00400
C2317       C  0.79417808  0.46414853  0.71705089    -0.04000
C2318       C  0.78808315  0.48568946  0.69495096     0.03000
C2319       C  0.85832451  0.48312764  0.64764673     0.09900
C2320       C  0.87010267  0.43856920  0.69266114     0.35800
C2321       C  0.75920469  0.50011434  0.69394544     0.39200
C2322       C  0.88434586  0.49999110  0.65192618    -0.04300
C2323       C  0.90440387  0.50467669  0.62812974     0.02800
C2324       C  0.89783367  0.49380021  0.59914130    -0.03900
C2325       C  0.87008718  0.47930117  0.59466021    -0.00200
C2326       C  0.85151726  0.47251609  0.61902685    -0.02700
C2327       C  0.89035154  0.51262993  0.68094626     0.36500
C2328       C  0.86016494  0.47100133  0.56518345     0.40100
C2329       C  0.93141420  0.52137376  0.63375763     0.39300
C2330       C  0.82568670  0.45363167  0.61487785     0.36200
C2331       C  0.80337069  0.51566438  0.65153569     0.36900
C2332       C  0.82842069  0.42778760  0.73978746     0.40100
N2333       N  0.95298288  0.53452338  0.63858178    -0.37900
N2334       N  0.89498280  0.52276747  0.70409262    -0.39500
N2335       N  0.85184923  0.46453469  0.54176623    -0.37300
N2336       N  0.80529063  0.43827615  0.61179222    -0.39700
N2337       N  0.89147966  0.42441079  0.69065967    -0.39400
N2338       N  0.83351925  0.41029899  0.75789232    -0.37100
N2339       N  0.73611669  0.51141001  0.69314018    -0.38100
N2340       N  0.79823659  0.53360962  0.63389200    -0.39800
C2341       C  0.01573404  0.60875644  0.34546212    -0.04700
C2342       C  0.99827672  0.63466407  0.34851679     0.09400
C2343       C  0.97986896  0.63796185  0.37364692    -0.02100
C2344       C  0.97922362  0.61578458  0.39585483    -0.00400
C2345       C  0.99736523  0.59005882  0.39339442    -0.04000
C2346       C  0.01556425  0.58671432  0.36784617     0.03000
C2347       C  0.00059177  0.65930742  0.32607151     0.09900
C2348       C  0.96176035  0.66449978  0.37672695     0.35800
C2349       C  0.03527052  0.56133796  0.36499164     0.39200
C2350       C  0.97833552  0.66346391  0.30452059    -0.04300
C2351       C  0.98068849  0.68677617  0.28355206     0.02800
C2352       C  0.00561458  0.70613460  0.28370045    -0.03900
C2353       C  0.02795978  0.70156772  0.30535022    -0.00200
C2354       C  0.02517099  0.67868868  0.32662787    -0.02700
C2355       C  0.95272974  0.64386143  0.30424448     0.36500
C2356       C  0.05495411  0.71901952  0.30493611     0.40100
C2357       C  0.95668669  0.69110292  0.26270663     0.39300
C2358       C  0.04763622  0.67505877  0.34939852     0.36200
C2359       C  0.03413820  0.60501431  0.31924309     0.36900
C2360       C  0.95930406  0.61943510  0.42092301     0.40100
N2361       N  0.93680367  0.69382118  0.24671467    -0.37900
N2362       N  0.93222444  0.62833269  0.30418359    -0.39500
N2363       N  0.07713688  0.73199619  0.30534985    -0.37300
N2364       N  0.06540281  0.67207706  0.36767009    -0.39700
N2365       N  0.94731255  0.68568002  0.37899092    -0.39400
N2366       N  0.94329626  0.62266770  0.44078396    -0.37100
N2367       N  0.05116465  0.54125756  0.36246668    -0.38100
N2368       N  0.04873668  0.60218176  0.29826060    -0.39800
C2369       C  0.02745868  0.31220685  0.67360107    -0.04700
C2370       C  0.00348008  0.33221675  0.67107663     0.09400
C2371       C  0.97911580  0.32963429  0.69048717    -0.02100
C2372       C  0.97780078  0.30614857  0.71113499    -0.00400
C2373       C  0.00143920  0.28546186  0.71345324    -0.04000
C2374       C  0.02655743  0.28900297  0.69478109     0.03000
C2375       C  0.00265202  0.35468959  0.64652677     0.09900
C2376       C  0.95493431  0.35089853  0.68863022     0.35800
C2377       C  0.05177888  0.26924553  0.69738416     0.39200
C2378       C  0.98700158  0.34824366  0.62023987    -0.04300
C2379       C  0.98525999  0.36945893  0.59721198     0.02800
C2380       C  0.99973850  0.39739259  0.59996165    -0.03900
C2381       C  0.01527712  0.40374822  0.62674697    -0.00200
C2382       C  0.01627306  0.38264898  0.64995597    -0.02700
C2383       C  0.97202229  0.31979988  0.61729360     0.36500
C2384       C  0.03082493  0.43172178  0.63074867     0.40100
C2385       C  0.96753037  0.36262545  0.57124432     0.39300
C2386       C  0.03070705  0.38994091  0.67780794     0.36200
C2387       C  0.05293328  0.31544656  0.65410060     0.36900
C2388       C  0.95075704  0.30215119  0.72804579     0.40100
N2389       N  0.95338254  0.35692244  0.55060287    -0.37900
N2390       N  0.96001199  0.29713419  0.61522042    -0.39500
N2391       N  0.04326887  0.45390602  0.63459460    -0.37300
N2392       N  0.04197928  0.39586778  0.70009732    -0.39700
N2393       N  0.93568114  0.36787971  0.68717163    -0.39400
N2394       N  0.92837066  0.29965168  0.74043340    -0.37100
N2395       N  0.07252879  0.25414162  0.69898124    -0.38100
N2396       N  0.07322285  0.31818686  0.63852581    -0.39800
C2397       C  0.96325274  0.62632049  0.62403048    -0.04700
C2398       C  0.98905476  0.64035692  0.63512418     0.09400
C2399       C  0.01714848  0.63266522  0.62335464    -0.02100
C2400       C  0.01951114  0.61043130  0.60132972    -0.00400
C2401       C  0.99379143  0.59586473  0.59097748    -0.04000
C2402       C  0.96562605  0.60427417  0.60187860     0.03000
C2403       C  0.98650550  0.66440734  0.65803836     0.09900
C2404       C  0.04357729  0.64780162  0.63382261     0.35800
C2405       C  0.93904335  0.59070411  0.58967901     0.39200
C2406       C  0.97982143  0.65759295  0.68785272    -0.04300
C2407       C  0.97724956  0.68073567  0.70894714     0.02800
C2408       C  0.98580626  0.71009102  0.70140507    -0.03900
C2409       C  0.98380804  0.71709753  0.67082092    -0.00200
C2410       C  0.98679807  0.69446759  0.64931415    -0.02700
C2411       C  0.97515646  0.62697441  0.69677117     0.36500
C2412       C  0.96833652  0.74371525  0.66182364     0.40100
C2413       C  0.95866169  0.67587344  0.73469232     0.39300
C2414       C  0.98847329  0.70210973  0.61809119     0.36200
C2415       C  0.93421196  0.63484900  0.63513122     0.36900
C2416       C  0.04835281  0.60255493  0.58924560     0.40100
N2417       N  0.94301320  0.67151835  0.75463277    -0.37900
N2418       N  0.97147348  0.60250933  0.70384338    -0.39500
N2419       N  0.95516515  0.76431305  0.65389462    -0.37300
N2420       N  0.98988342  0.70812264  0.59317286    -0.39700
N2421       N  0.06463682  0.66000867  0.64207108    -0.39400
N2422       N  0.07135397  0.59624342  0.57960524    -0.37100
N2423       N  0.91792765  0.57995248  0.57973079    -0.38100
N2424       N  0.91101584  0.64152945  0.64403035    -0.39800
C2425       C  0.98140817  0.33828935  0.18841583    -0.04700
C2426       C  0.00571027  0.34037244  0.16863189     0.09400
C2427       C  0.02983160  0.32061196  0.17150806    -0.02100
C2428       C  0.02910030  0.29810362  0.19312370    -0.00400
C2429       C  0.00386067  0.29460257  0.21166048    -0.04000
C2430       C  0.98013367  0.31502867  0.20943489     0.03000
C2431       C  0.00521927  0.36210060  0.14349042     0.09900
C2432       C  0.05469387  0.32230074  0.15100214     0.35800
C2433       C  0.95310177  0.31041181  0.22632433     0.39200
C2434       C  0.02415015  0.38703842  0.14382133    -0.04300
C2435       C  0.02469633  0.40674167  0.11952092     0.02800
C2436       C  0.00553018  0.40222074  0.09495546    -0.03900
C2437       C  0.98631883  0.37732590  0.09489227    -0.00200
C2438       C  0.98666938  0.35702627  0.11875569    -0.02700
C2439       C  0.04320813  0.39230116  0.16925239     0.36500
C2440       C  0.96507283  0.37329891  0.07106506     0.40100
C2441       C  0.04562048  0.43125678  0.11983631     0.39300
C2442       C  0.96807689  0.33068375  0.11779933     0.36200
C2443       C  0.95708060  0.35931527  0.18610359     0.36900
C2444       C  0.05370481  0.27726160  0.19495962     0.40100
N2445       N  0.06259089  0.45054900  0.12074791    -0.37900
N2446       N  0.05845529  0.39632701  0.18950258    -0.39500
N2447       N  0.94794919  0.37017662  0.05220496    -0.37300
N2448       N  0.95332139  0.30961576  0.11709995    -0.39700
N2449       N  0.07450268  0.32357501  0.13464241    -0.39400
N2450       N  0.07329543  0.26066083  0.19648467    -0.37100
N2451       N  0.93113949  0.30686264  0.23922964    -0.38100
N2452       N  0.93769312  0.37609798  0.18411572    -0.39800
C2453       C  0.97084224  0.16575251  0.30710996    -0.04700
C2454       C  0.99457858  0.16402832  0.32722753     0.09400
C2455       C  0.01612699  0.18673967  0.32801831    -0.02100
C2456       C  0.01535613  0.20999014  0.30703054    -0.00400
C2457       C  0.99215193  0.21129830  0.28596560    -0.04000
C2458       C  0.96942834  0.18937289  0.28673669     0.03000
C2459       C  0.99583247  0.13902146  0.34883834     0.09900
C2460       C  0.03942344  0.18574469  0.35020044     0.35800
C2461       C  0.94510978  0.19024874  0.26563285     0.39200
C2462       C  0.01018558  0.11207227  0.34157631    -0.04300
C2463       C  0.01131092  0.08865521  0.36245871     0.02800
C2464       C  0.99769693  0.09209992  0.39068750    -0.03900
C2465       C  0.98235624  0.11903558  0.39712714    -0.00200
C2466       C  0.98182773  0.14235250  0.37644807    -0.02700
C2467       C  0.02395236  0.10865207  0.31264036     0.36500
C2468       C  0.96635255  0.12320347  0.42476221     0.40100
C2469       C  0.02731330  0.06161581  0.35502445     0.39300
C2470       C  0.96677208  0.17007738  0.38353764     0.36200
C2471       C  0.94814508  0.14279750  0.30713758     0.36900
C2472       C  0.03999466  0.23062329  0.30579523     0.40100
N2473       N  0.04007323  0.04009417  0.34891557    -0.37900
N2474       N  0.03485907  0.10597083  0.28951496    -0.39500
N2475       N  0.95343991  0.12767255  0.44651392    -0.37300
N2476       N  0.95485817  0.19220266  0.38912432    -0.39700
N2477       N  0.05782672  0.18496276  0.36806684    -0.39400
N2478       N  0.06039398  0.24626448  0.30558905    -0.37100
N2479       N  0.92575093  0.19078293  0.24878957    -0.38100
N2480       N  0.93016358  0.12439685  0.30727146    -0.39800
C2481       C  0.01719837  0.32486892  0.30730669    -0.04700
C2482       C  0.99248016  0.32599509  0.32650345     0.09400
C2483       C  0.96897316  0.30568133  0.32239208    -0.02100
C2484       C  0.97025299  0.28427929  0.29932831    -0.00400
C2485       C  0.99551304  0.28234955  0.28057953    -0.04000
C2486       C  0.01908823  0.30277062  0.28503129     0.03000
C2487       C  0.99152016  0.34840013  0.35134439     0.09900
C2488       C  0.94330928  0.30708674  0.34186817     0.35800
C2489       C  0.04638297  0.30006981  0.26827517     0.39200
C2490       C  0.97663984  0.37569617  0.34760368    -0.04300
C2491       C  0.97584618  0.39681347  0.37087257     0.02800
C2492       C  0.99136186  0.39158177  0.39784439    -0.03900
C2493       C  0.00695034  0.36433101  0.40109479    -0.00200
C2494       C  0.00635501  0.34266523  0.37827720    -0.02700
C2495       C  0.96281326  0.38239248  0.31933244     0.36500
C2496       C  0.02529390  0.35911928  0.42698318     0.40100
C2497       C  0.95866012  0.42377108  0.36674088     0.39300
C2498       C  0.02150199  0.31447008  0.38221381     0.36200
C2499       C  0.04067483  0.34677556  0.31040665     0.36900
C2500       C  0.94486004  0.26523161  0.29427075     0.40100
N2501       N  0.94487353  0.44513580  0.36292646    -0.37900
N2502       N  0.95205889  0.38788088  0.29669543    -0.39500
N2503       N  0.04023228  0.35490492  0.44741010    -0.37300
N2504       N  0.03347474  0.29189731  0.38522272    -0.39700
N2505       N  0.92290043  0.30836281  0.35748080    -0.39400
N2506       N  0.92400422  0.25065735  0.29060790    -0.37100
N2507       N  0.06899151  0.29829359  0.25615499    -0.38100
N2508       N  0.05922672  0.36444022  0.31275109    -0.39800
loop_ 
_geom_bond_atom_site_label_1 
_geom_bond_atom_site_label_2 
_geom_bond_distance 
_geom_bond_site_symmetry_2 
_ccdc_geom_bond_type 
N1            C5   1.366       .  A
N1            C2   1.368       .  A
N1         C2485   1.459       .  S
C2            C3   1.382       .  A
C2         C2457   1.489       .  S
C3            C4   1.361       .  A
C3            H6   1.083       .  S
C4            C5   1.380       .  A
C4            H7   1.083   1_655  S
C5         C2429   1.487   1_655  S
O8           C19   1.296       .  A
O8          Eu44   2.488       .  S
O9           C20   1.292       .  A
O9          Eu43   2.466       .  S
O10          C21   1.287       .  A
O10         Eu16   2.430       .  S
O11          C22   1.288       .  A
O11         Eu16   2.441   1_455  S
O12          C22   1.298       .  A
O12         Eu46   2.494       .  S
O13          C21   1.294       .  A
O13         Eu45   2.471       .  S
O14          C20   1.292       .  A
O14         Eu16   2.468       .  S
O15          C19   1.290       .  A
O15         Eu16   2.451       .  S
Eu16         O26   2.345   1_655  S
Eu16         O18   2.350       .  S
Eu16         O17   2.348   1_655  S
Eu16         O24   2.350       .  S
O17         Eu46   2.361       .  S
O17         Eu43   2.343   1_455  S
O18         Eu44   2.344       .  S
O18         Eu45   2.359       .  S
C19        C2492   1.506       .  S
C20        C2345   1.502       .  S
C21        C2261   1.487       .  S
C22        C2233   1.495       .  S
H23          O24   0.966       .  S
O24         Eu45   2.371       .  S
O24         Eu43   2.347       .  S
H25          O26   0.966       .  S
O26         Eu44   2.348   1_455  S
O26         Eu46   2.360       .  S
O27          C50   1.288       .  A
O27         Eu43   2.450       .  S
O28          C51   1.296       .  A
O28         Eu44   2.486       .  S
O29          C52   1.295       .  A
O29         Eu45   2.483       .  S
O30          C53   1.295       .  A
O30         Eu46   2.482       .  S
O31          C54   1.295       .  A
O31         Eu46   2.478       .  S
O32          C55   1.296       .  A
O32         Eu45   2.491       .  S
O33          C56   1.291       .  A
O33         Eu47   2.463       .  S
O34          C57   1.288       .  A
O34         Eu47   2.440   1_455  S
O35          C56   1.294       .  A
O35         Eu45   2.477       .  S
O36          C57   1.297       .  A
O36         Eu46   2.489       .  S
O37          C52   1.284       .  A
O37         Eu43   2.421       .  S
O38          C55   1.285       .  A
O38         Eu44   2.422       .  S
O39          C54   1.285       .  A
O39         Eu44   2.420   1_455  S
O40          C53   1.287       .  A
O40         Eu43   2.433   1_455  S
O41          C50   1.290       .  A
O41         Eu47   2.460       .  S
O42          C51   1.288       .  A
O42         Eu47   2.444       .  S
Eu43         O61   2.350   1_655  S
Eu43         O49   2.352       .  S
Eu44         O48   2.350   1_655  S
Eu44         O59   2.354       .  S
Eu45         O59   2.357       .  S
Eu45         O49   2.351       .  S
Eu46         O48   2.362       .  S
Eu46         O61   2.363       .  S
Eu47         O48   2.357   1_655  S
Eu47         O59   2.348       .  S
Eu47         O61   2.356   1_655  S
Eu47         O49   2.340       .  S
C50        C2401   1.477       .  S
C51        C2380   1.505       .  S
C52        C2205   1.504       .  S
C53        C2121   1.488       .  S
C54        C2177   1.485       .  S
C55        C2149   1.476       .  S
C56        C2324   1.512       .  S
C57        C2289   1.501       .  S
H58          O59   0.966       .  S
H60          O61   0.966       .  S
N62          C66   1.375       .  A
N62          C63   1.376       .  A
N62        C2408   1.480   1_455  S
C63          C64   1.377       .  A
C63        C2065   1.479       .  S
C64          C65   1.354       .  A
C64          H67   1.083       .  S
C65          C66   1.376       .  A
C65          H68   1.083       .  S
C66        C2093   1.476       .  S
N69          C73   1.363       .  A
N69          C70   1.362       .  A
N69        C2373   1.455   1_655  S
C70          C71   1.383       .  A
C70        C2037   1.489   1_655  S
C71          C72   1.368       .  A
C71          H74   1.082       .  S
C72          C73   1.380       .  A
C72          H75   1.082       .  S
C73        C2016   1.485       .  S
N76          C80   1.363       .  A
N76          C77   1.362       .  A
N76        C2352   1.459       .  S
C77          C78   1.381       .  A
C77        C1960   1.477       .  S
C78          C79   1.361       .  A
C78          H81   1.083       .  S
C79          C80   1.381       .  A
C79          H82   1.082       .  S
C80        C1988   1.481       .  S
O83          C94   1.295   1_655  A
O83        Eu119   2.478   1_645  S
O84          C95   1.294       .  A
O84        Eu118   2.468       .  S
O85          C96   1.294       .  A
O85         Eu91   2.477   1_655  S
O86          C97   1.294       .  A
O86         Eu91   2.478       .  S
O87          C97   1.291       .  A
O87        Eu121   2.458   1_545  S
O88          C96   1.290       .  A
O88        Eu120   2.456   1_545  S
O89          C95   1.290       .  A
O89         Eu91   2.452       .  S
O90          C94   1.288       .  A
O90         Eu91   2.435       .  S
Eu91        O101   2.356       .  S
Eu91         O93   2.358   1_455  S
Eu91         O92   2.347       .  S
Eu91         O99   2.349   1_455  S
O92        Eu121   2.353   1_545  S
O92        Eu118   2.356       .  S
O93        Eu119   2.354   1_645  S
O93        Eu120   2.346   1_545  S
C94        C2464   1.494   1_455  S
C95        C2044   1.492       .  S
C96        C1897   1.505       .  S
C97        C1925   1.504       .  S
H98          O99   0.966       .  S
O99        Eu120   2.355   1_545  S
O99        Eu118   2.351   1_655  S
H100        O101   0.966       .  S
O101       Eu119   2.361   1_545  S
O101       Eu121   2.349   1_545  S
O102        C125   1.290       .  A
O102       Eu118   2.454   1_565  S
O103        C126   1.295       .  A
O103       Eu119   2.475       .  S
O104        C127   1.283       .  A
O104       Eu120   2.413   1_545  S
O105        C128   1.286       .  A
O105       Eu121   2.425       .  S
O106        C129   1.288       .  A
O106       Eu121   2.439       .  S
O107        C130   1.287       .  A
O107       Eu120   2.433       .  S
O108        C131   1.292       .  A
O108       Eu122   2.464   1_655  S
O109        C132   1.293       .  A
O109       Eu122   2.471       .  S
O110        C131   1.292       .  A
O110       Eu120   2.469       .  S
O111        C132   1.292       .  A
O111       Eu121   2.469       .  S
O112        C127   1.298       .  A
O112       Eu118   2.494   1_655  S
O113        C130   1.291       .  A
O113       Eu119   2.457   1_655  S
O114        C129   1.291       .  A
O114       Eu119   2.454       .  S
O115        C128   1.295       .  A
O115       Eu118   2.476   1_565  S
O116        C125   1.291       .  A
O116       Eu122   2.453       .  S
O117        C126   1.287       .  A
O117       Eu122   2.429       .  S
Eu118       O136   2.363   1_545  S
Eu118       O124   2.355   1_445  S
Eu119       O123   2.353       .  S
Eu119       O134   2.357   1_455  S
Eu120       O134   2.340       .  S
Eu120       O124   2.347       .  S
Eu121       O123   2.339       .  S
Eu121       O136   2.353       .  S
Eu122       O123   2.351       .  S
Eu122       O134   2.352   1_455  S
Eu122       O136   2.341       .  S
Eu122       O124   2.346   1_455  S
C125       C2100   1.480   1_455  S
C126       C1981   1.491       .  S
C127       C1736   1.493       .  S
C128       C1764   1.493       .  S
C129       C1792   1.482       .  S
C130       C1813   1.483       .  S
C131       C1876   1.499       .  S
C132       C1841   1.507       .  S
H133        O134   0.966       .  S
H135        O136   0.966       .  S
N137        C141   1.365       .  A
N137        C138   1.364       .  A
N137       C1932   1.460       .  S
C138        C139   1.381       .  A
C138       C2184   1.483       .  S
C139        C140   1.361       .  A
C139        H142   1.083       .  S
C140        C141   1.381       .  A
C140        H143   1.082       .  S
C141       C1701   1.483       .  S
N144        C148   1.363       .  A
N144        C145   1.360       .  A
N144       C1904   1.455       .  S
C145        C146   1.382       .  A
C145       C2156   1.482       .  S
C146        C147   1.365       .  A
C146        H149   1.082       .  S
C147        C148   1.381       .  A
C147        H150   1.082       .  S
C148       C1673   1.486       .  S
N151        C155   1.365       .  A
N151        C152   1.364       .  A
N151       C1869   1.460       .  S
C152        C153   1.381       .  A
C152       C1645   1.482       .  S
C153        C154   1.362       .  A
C153        H156   1.083       .  S
C154        C155   1.380       .  A
C154        H157   1.082       .  S
C155       C2212   1.485       .  S
N158        C162   1.366       .  A
N158        C159   1.368       .  A
N158       C1848   1.461       .  S
C159        C160   1.382       .  A
C159       C2128   1.490       .  S
C160        C161   1.361       .  A
C160        H163   1.082       .  S
C161        C162   1.379       .  A
C161        H164   1.083       .  S
C162       C1617   1.483       .  S
N165        C169   1.366       .  A
N165        C166   1.366       .  A
N165       C1589   1.458       .  S
C166        C167   1.381       .  A
C166       C1820   1.488       .  S
C167        C168   1.362       .  A
C167        H170   1.083       .  S
C168        C169   1.381       .  A
C168        H171   1.082       .  S
C169       C1561   1.488       .  S
O172        C183   1.292       .  A
O172       Eu208   2.459       .  S
O173        C184   1.290       .  A
O173       Eu207   2.451       .  S
O174        C185   1.294       .  A
O174       Eu180   2.474       .  S
O175        C186   1.293       .  A
O175       Eu180   2.472       .  S
O176        C186   1.296       .  A
O176       Eu210   2.487       .  S
O177        C185   1.291       .  A
O177       Eu209   2.458       .  S
O178        C184   1.290       .  A
O178       Eu180   2.451       .  S
O179        C183   1.291       .  A
O179       Eu180   2.452   1_545  S
Eu180       O190   2.352   1_565  S
Eu180       O182   2.348   1_565  S
Eu180       O181   2.352       .  S
Eu180       O188   2.349       .  S
O181       Eu210   2.344       .  S
O181       Eu207   2.352       .  S
O182       Eu208   2.351       .  S
O182       Eu209   2.340   1_545  S
C183       C1708   1.492       .  S
C184       C1624   1.494       .  S
C185       C1477   1.502       .  S
C186       C1533   1.510       .  S
H187        O188   0.966       .  S
O188       Eu209   2.358       .  S
O188       Eu207   2.361       .  S
H189        O190   0.966       .  S
O190       Eu208   2.358       .  S
O190       Eu210   2.356   1_545  S
O191        C214   1.292       .  A
O191       Eu207   2.465       .  S
O192        C215   1.294       .  A
O192       Eu208   2.468       .  S
O193        C216   1.285       .  A
O193       Eu209   2.417       .  S
O194        C217   1.288       .  A
O194       Eu210   2.437       .  S
O195        C218   1.287       .  A
O195       Eu210   2.431   1_545  S
O196        C219   1.288       .  A
O196       Eu209   2.439   1_545  S
O197        C220   1.293       .  A
O197       Eu211   2.473       .  S
O198        C221   1.293       .  A
O198       Eu211   2.473       .  S
O199        C220   1.292       .  A
O199       Eu209   2.468       .  S
O200        C221   1.295       .  A
O200       Eu210   2.483       .  S
O201        C216   1.294       .  A
O201       Eu207   2.473       .  S
O202        C219   1.294       .  A
O202       Eu208   2.475       .  S
O203        C218   1.294       .  A
O203       Eu208   2.474       .  S
O204        C217   1.296       .  A
O204       Eu207   2.487       .  S
O205        C214   1.287       .  A
O205       Eu211   2.433       .  S
O206        C215   1.283       .  A
O206       Eu211   2.412   1_545  S
Eu207       O225   2.356       .  S
Eu207       O213   2.356       .  S
Eu208       O212   2.351       .  S
Eu208       O223   2.356       .  S
Eu209       O223   2.343   1_565  S
Eu209       O213   2.351       .  S
Eu210       O212   2.346   1_565  S
Eu210       O225   2.360       .  S
Eu211       O212   2.353   1_565  S
Eu211       O223   2.356   1_565  S
Eu211       O225   2.356       .  S
Eu211       O213   2.339       .  S
C214       C1652   1.483       .  S
C215       C1680   1.488       .  S
C216       C1400   1.479       .  S
C217       C1456   1.491       .  S
C218       C1421   1.495       .  S
C219       C1365   1.494       .  S
C220       C1596   1.511       .  S
C221       C1505   1.505       .  S
H222        O223   0.966       .  S
H224        O225   0.966       .  S
N226        C230   1.368       .  A
N226        C227   1.370       .  A
N226       C1540   1.463       .  S
C227        C228   1.382       .  A
C227       C1337   1.489   1_565  S
C228        C229   1.358       .  A
C228        H231   1.083       .  S
C229        C230   1.380       .  A
C229        H232   1.083       .  S
C230       C1757   1.486       .  S
N233        C237   1.365       .  A
N233        C234   1.367       .  A
N233       C1512   1.458       .  S
C234        C235   1.382       .  A
C234       C1729   1.493       .  S
C235        C236   1.364       .  A
C235        H238   1.082       .  S
C236        C237   1.381       .  A
C236        H239   1.083       .  S
C237       C1316   1.488       .  S
N240        C244   1.362       .  A
N240        C241   1.364       .  A
N240       C1484   1.451       .  S
C241        C242   1.382       .  A
C241       C1281   1.493       .  S
C242        C243   1.366       .  A
C242        H245   1.082       .  S
C243        C244   1.382       .  A
C243        H246   1.083       .  S
C244       C1785   1.487       .  S
O247        C258   1.295       .  A
O247       Eu283   2.486   1_554  S
O248        C259   1.294       .  A
O248       Eu282   2.473   1_554  S
O249        C260   1.291       .  A
O249       Eu255   2.461   1_545  S
O250        C261   1.295       .  A
O250       Eu255   2.481       .  S
O251        C261   1.289       .  A
O251       Eu285   2.451   1_554  S
O252        C260   1.294       .  A
O252       Eu284   2.480   1_554  S
O253        C259   1.289       .  A
O253       Eu255   2.443       .  S
O254        C258   1.288       .  A
O254       Eu255   2.440       .  S
Eu255       O265   2.347       .  S
Eu255       O257   2.353   1_565  S
Eu255       O256   2.341       .  S
Eu255       O263   2.359   1_565  S
O256       Eu285   2.341   1_554  S
O256       Eu282   2.352   1_554  S
O257       Eu283   2.357   1_544  S
O257       Eu284   2.359   1_554  S
C258       C1568   1.488       .  S
C259       C1288   1.494       .  S
C260       C1253   1.520       .  S
C261       C1232   1.506       .  S
H262        O263   0.966       .  S
O263       Eu284   2.356   1_554  S
O263       Eu282   2.357   1_544  S
H264        O265   0.966       .  S
O265       Eu283   2.359   1_554  S
O265       Eu285   2.356   1_554  S
O266        C289   1.296       .  A
O266       Eu282   2.487       .  S
O267        C290   1.294       .  A
O267       Eu283   2.476       .  S
O268        C291   1.291   1_556  A
O268       Eu284   2.455       .  S
O269        C292   1.289   1_556  A
O269       Eu285   2.447       .  S
O270        C293   1.289       .  A
O270       Eu285   2.443       .  S
O271        C294   1.289       .  A
O271       Eu284   2.444       .  S
O272        C295   1.292       .  A
O272       Eu286   2.468   1_545  S
O273        C296   1.292       .  A
O273       Eu286   2.469       .  S
O274        C295   1.296       .  A
O274       Eu284   2.483       .  S
O275        C296   1.291       .  A
O275       Eu285   2.460       .  S
O276        C291   1.294       .  A
O276       Eu282   2.473   1_544  S
O277        C294   1.293       .  A
O277       Eu283   2.466   1_545  S
O278        C293   1.292       .  A
O278       Eu283   2.461       .  S
O279        C292   1.292       .  A
O279       Eu282   2.459   1_554  S
O280        C289   1.285       .  A
O280       Eu286   2.424       .  S
O281        C290   1.288       .  A
O281       Eu286   2.439       .  S
Eu282       O300   2.359       .  S
Eu282       O288   2.353   1_565  S
Eu283       O287   2.360       .  S
Eu283       O298   2.357   1_565  S
Eu284       O298   2.358       .  S
Eu284       O288   2.352       .  S
Eu285       O287   2.349       .  S
Eu285       O300   2.353       .  S
Eu286       O287   2.348       .  S
Eu286       O298   2.349   1_565  S
Eu286       O300   2.351       .  S
Eu286       O288   2.357   1_565  S
C289       C1344   1.493       .  S
C290       C1309   1.487       .  S
C291       C1141   1.494       .  S
C292       C1085   1.490       .  S
C293       C1113   1.479       .  S
C294       C1057   1.482       .  S
C295       C1169   1.510       .  S
C296       C1197   1.497       .  S
H297        O298   0.966       .  S
H299        O300   0.966       .  S
N301        C305   1.363       .  A
N301        C302   1.365       .  A
N301       C1260   1.449       .  S
C302        C303   1.380       .  A
C302       C1372   1.496       .  S
C303        C304   1.373       .  A
C303        H306   1.082       .  S
C304        C305   1.384       .  A
C304        H307   1.082       .  S
C305       C1029   1.499       .  S
N308        C312   1.361       .  A
N308        C309   1.363       .  A
N308       C1225   1.455       .  S
C309        C310   1.382       .  A
C309       C1008   1.483       .  S
C310        C311   1.361       .  A
C310        H313   1.082       .  S
C311        C312   1.380       .  A
C311        H314   1.083       .  S
C312       C1393   1.479       .  S
N315        C319   1.364       .  A
N315        C316   1.363       .  A
N315       C1204   1.450       .  S
C316        C317   1.381       .  A
C316        C973   1.490       .  S
C317        C318   1.365       .  A
C317        H320   1.082       .  S
C318        C319   1.382       .  A
C318        H321   1.082       .  S
C319       C1449   1.492       .  S
N322        C326   1.370       .  A
N322        C323   1.368       .  A
N322       C1176   1.464       .  S
C323        C324   1.380       .  A
C323       C1428   1.488       .  S
C324        C325   1.360       .  A
C324        H327   1.083       .  S
C325        C326   1.381       .  A
C325        H328   1.082       .  S
C326        C945   1.491       .  S
O329        C340   1.297       .  A
O329       Eu365   2.491   1_554  S
O330        C341   1.294       .  A
O330       Eu364   2.469   1_654  S
O331        C342   1.293       .  A
O331       Eu337   2.470       .  S
O332        C343   1.294       .  A
O332       Eu337   2.483   1_655  S
O333        C343   1.291       .  A
O333       Eu367   2.470   1_554  S
O334        C342   1.291       .  A
O334       Eu366   2.460   1_554  S
O335        C341   1.286       .  A
O335       Eu337   2.427   1_655  S
O336        C340   1.287       .  A
O336       Eu337   2.432       .  S
Eu337       O347   2.343   1_455  S
Eu337       O339   2.357       .  S
Eu337       O338   2.350   1_455  S
Eu337       O345   2.351       .  S
O338       Eu367   2.348   1_554  S
O338       Eu364   2.370   1_654  S
O339       Eu365   2.350   1_554  S
O339       Eu366   2.348   1_554  S
C340       C2436   1.491       .  S
C341       C1953   1.475       .  S
C342        C889   1.497       .  S
C343        C917   1.529       .  S
H344        O345   0.966       .  S
O345       Eu366   2.354   1_554  S
O345       Eu364   2.355   1_554  S
H346        O347   0.966       .  S
O347       Eu365   2.367   1_654  S
O347       Eu367   2.355   1_554  S
O348        C371   1.297   1_455  A
O348       Eu364   2.491       .  S
O349        C372   1.295       .  A
O349       Eu365   2.477       .  S
O350        C373   1.279       .  A
O350       Eu366   2.400       .  S
O351        C374   1.293       .  A
O351       Eu367   2.467       .  S
O352        C375   1.291       .  A
O352       Eu367   2.452       .  S
O353        C376   1.287       .  A
O353       Eu366   2.439       .  S
O354        C377   1.293       .  A
O354       Eu368   2.472   1_455  S
O355        C378   1.295       .  A
O355       Eu368   2.482       .  S
O356        C377   1.293       .  A
O356       Eu366   2.477       .  S
O357        C378   1.289       .  A
O357       Eu367   2.453       .  S
O358        C373   1.298       .  A
O358       Eu364   2.498       .  S
O359        C376   1.296       .  A
O359       Eu365   2.489       .  S
O360        C375   1.293       .  A
O360       Eu365   2.465   1_655  S
O361        C374   1.293       .  A
O361       Eu364   2.468   1_655  S
O362        C371   1.286       .  A
O362       Eu368   2.428       .  S
O363        C372   1.282       .  A
O363       Eu368   2.411   1_455  S
Eu364       O382   2.365   1_455  S
Eu364       O370   2.351       .  S
Eu365       O369   2.362   1_455  S
Eu365       O380   2.357       .  S
Eu366       O380   2.336       .  S
Eu366       O370   2.349       .  S
Eu367       O369   2.352       .  S
Eu367       O382   2.359       .  S
Eu368       O369   2.346       .  S
Eu368       O380   2.354   1_655  S
Eu368       O382   2.345       .  S
Eu368       O370   2.346   1_655  S
C371       C2072   1.484       .  S
C372       C2009   1.498       .  S
C373        C777   1.507   1_556  S
C374        C721   1.491       .  S
C375        C756   1.483       .  S
C376        C805   1.508       .  S
C377        C861   1.500       .  S
C378        C833   1.491       .  S
H379        O380   0.966       .  S
H381        O382   0.966       .  S
N383        C387   1.362       .  A
N383        C384   1.362       .  A
N383        C924   1.459       .  S
C384        C385   1.381       .  A
C384        C693   1.477       .  S
C385        C386   1.362       .  A
C385        H388   1.083       .  S
C386        C387   1.380       .  A
C386        H389   1.082       .  S
C387       C2268   1.476       .  S
N390        C394   1.365       .  A
N390        C391   1.367       .  A
N390        C896   1.457       .  S
C391        C392   1.381       .  A
C391        C672   1.492       .  S
C392        C393   1.365       .  A
C392        H395   1.082       .  S
C393        C394   1.381       .  A
C393        H396   1.082       .  S
C394       C2240   1.491       .  S
N397        C401   1.367       .  A
N397        C398   1.364       .  A
N397        C868   1.455       .  S
C398        C399   1.381       .  A
C398        C637   1.490       .  S
C399        C400   1.364       .  A
C399        H402   1.083       .  S
C400        C401   1.382       .  A
C400        H403   1.082       .  S
C401       C2296   1.494       .  S
N404        C408   1.369       .  A
N404        C405   1.367       .  A
N404        C840   1.461       .  S
C405        C406   1.381       .  A
C405       C2317   1.490       .  S
C406        C407   1.365       .  A
C406        H409   1.082       .  S
C407        C408   1.381       .  A
C407        H410   1.082       .  S
C408        C609   1.495       .  S
N411        C415   1.366       .  A
N411        C412   1.366       .  A
N411        C581   1.455       .  S
C412        C413   1.381       .  A
C412        C812   1.494       .  S
C413        C414   1.368       .  A
C413        H416   1.082       .  S
C414        C415   1.382       .  A
C414        H417   1.082       .  S
C415       C1148   1.494       .  S
O418        C429   1.291       .  A
O418       Eu454   2.461       .  S
O419        C430   1.293       .  A
O419       Eu453   2.467       .  S
O420        C431   1.290       .  A
O420       Eu426   2.453       .  S
O421        C432   1.292       .  A
O421       Eu426   2.462       .  S
O422        C432   1.293       .  A
O422       Eu456   2.472       .  S
O423        C431   1.295       .  A
O423       Eu455   2.483       .  S
O424        C430   1.293       .  A
O424       Eu426   2.463       .  S
O425        C429   1.295       .  A
O425       Eu426   2.486   1_554  S
Eu426       O436   2.348   1_556  S
Eu426       O428   2.352   1_556  S
Eu426       O427   2.354       .  S
Eu426       O434   2.365       .  S
O427       Eu456   2.345       .  S
O427       Eu453   2.357       .  S
O428       Eu454   2.350       .  S
O428       Eu455   2.350   1_554  S
C429       C1036   1.490       .  S
C430        C952   1.490       .  S
C431        C588   1.506       .  S
C432        C504   1.509       .  S
H433        O434   0.966       .  S
O434       Eu455   2.353       .  S
O434       Eu453   2.363       .  S
H435        O436   0.966       .  S
O436       Eu454   2.362       .  S
O436       Eu456   2.368   1_554  S
O437        C460   1.294       .  A
O437       Eu453   2.472       .  S
O438        C461   1.289       .  A
O438       Eu454   2.451       .  S
O439        C462   1.287       .  A
O439       Eu455   2.433       .  S
O440        C463   1.289       .  A
O440       Eu456   2.444       .  S
O441        C464   1.286       .  A
O441       Eu456   2.424   1_554  S
O442        C465   1.285       .  A
O442       Eu455   2.427   1_554  S
O443        C466   1.291       .  A
O443       Eu457   2.458       .  S
O444        C467   1.292       .  A
O444       Eu457   2.469   1_556  S
O445        C466   1.294       .  A
O445       Eu455   2.482   1_554  S
O446        C467   1.297       .  A
O446       Eu456   2.497       .  S
O447        C462   1.294       .  A
O447       Eu453   2.476       .  S
O448        C465   1.295       .  A
O448       Eu454   2.483       .  S
O449        C464   1.293       .  A
O449       Eu454   2.464       .  S
O450        C463   1.292       .  A
O450       Eu453   2.467       .  S
O451        C460   1.285       .  A
O451       Eu457   2.423   1_556  S
O452        C461   1.290       .  A
O452       Eu457   2.451       .  S
Eu453       O471   2.359       .  S
Eu453       O459   2.350       .  S
Eu454       O458   2.360       .  S
Eu454       O469   2.351       .  S
Eu455       O469   2.357   1_556  S
Eu455       O459   2.348       .  S
Eu456       O458   2.350   1_556  S
Eu456       O471   2.343       .  S
Eu457       O458   2.339       .  S
Eu457       O469   2.344       .  S
Eu457       O471   2.349   1_554  S
Eu457       O459   2.358   1_554  S
C460        C980   1.479       .  S
C461       C1001   1.478       .  S
C462        C644   1.488       .  S
C463        C616   1.505       .  S
C464        C700   1.479       .  S
C465        C665   1.502       .  S
C466        C525   1.507       .  S
C467        C553   1.520       .  S
H468        O469   0.965       .  S
H470        O471   0.966       .  S
N472        C476   1.360       .  A
N472        C473   1.360       .  A
N472        C560   1.451       .  S
C473        C474   1.382       .  A
C473       C1120   1.486       .  S
C474        C475   1.373       .  A
C474        H477   1.082       .  S
C475        C476   1.381       .  A
C475        H478   1.082       .  S
C476        C728   1.487       .  S
N479        C483   1.363       .  A
N479        C480   1.362       .  A
N479        C532   1.458       .  S
C480        C481   1.381       .  A
C480       C1092   1.479       .  S
C481        C482   1.364       .  A
C481        H484   1.082       .  S
C482        C483   1.381       .  A
C482        H485   1.082       .  S
C483        C784   1.483       .  S
N486        C490   1.367       .  A
N486        C487   1.364       .  A
N486        C497   1.455       .  S
C487        C488   1.381       .  A
C487        C749   1.486       .  S
C488        C489   1.362       .  A
C488        H491   1.083       .  S
C489        C490   1.382       .  A
C489        H492   1.082       .  S
C490       C1064   1.492       .  S
C493        C494   1.409       .  A
C493        C498   1.411       .  A
C493        C511   1.450       .  S
C494        C495   1.409   1_556  A
C494        C499   1.500       .  S
C495        C496   1.414       .  A
C495        C500   1.451       .  S
C496        C497   1.418   1_554  A
C496        C512   1.447       .  S
C497        C498   1.416       .  A
C498        C501   1.447       .  S
C499        C502   1.407   1_556  A
C499        C506   1.408       .  A
C500        N517   1.157       .  T
C501        N519   1.157       .  T
C502        C503   1.414       .  A
C502        C507   1.451       .  S
C503        C504   1.424   1_554  A
C503        C509   1.450       .  S
C504        C505   1.422       .  A
C505        C506   1.413       .  A
C505        C508   1.447       .  S
C506        C510   1.452       .  S
C507        N514   1.157       .  T
C508        N515   1.156       .  T
C509        N513   1.157       .  T
C510        N516   1.157       .  T
C511        N520   1.157       .  T
C512        N518   1.157       .  T
C521        C522   1.410   1_556  A
C521        C526   1.416       .  A
C521        C539   1.451       .  S
C522        C523   1.409       .  A
C522        C527   1.505       .  S
C523        C524   1.414       .  A
C523        C528   1.452       .  S
C524        C525   1.423       .  A
C524        C540   1.452       .  S
C525        C526   1.422   1_554  A
C526        C529   1.451       .  S
C527        C530   1.408       .  A
C527        C534   1.410   1_554  A
C528        N545   1.157       .  T
C529        N547   1.157       .  T
C530        C531   1.413       .  A
C530        C535   1.452       .  S
C531        C532   1.417       .  A
C531        C537   1.446       .  S
C532        C533   1.419   1_554  A
C533        C534   1.417       .  A
C533        C536   1.446       .  S
C534        C538   1.451       .  S
C535        N542   1.157       .  T
C536        N543   1.157       .  T
C537        N541   1.157       .  T
C538        N544   1.157       .  T
C539        N548   1.157       .  T
C540        N546   1.158       .  T
C549        C550   1.411       .  A
C549        C554   1.417       .  A
C549        C567   1.453       .  S
C550        C551   1.413       .  A
C550        C555   1.514       .  S
C551        C552   1.421   1_556  A
C551        C556   1.451   1_556  S
C552        C553   1.423   1_554  A
C552        C568   1.451       .  S
C553        C554   1.426       .  A
C554        C557   1.451       .  S
C555        C558   1.417   1_556  A
C555        C562   1.413       .  A
C556        N573   1.157       .  T
C557        N575   1.157       .  T
C558        C559   1.420   1_554  A
C558        C563   1.449       .  S
C559        C560   1.411       .  A
C559        C565   1.446   1_556  S
C560        C561   1.411       .  A
C561        C562   1.412       .  A
C561        C564   1.447       .  S
C562        C566   1.451       .  S
C563        N570   1.157       .  T
C564        N571   1.157       .  T
C565        N569   1.157       .  T
C566        N572   1.157       .  T
C567        N576   1.157       .  T
C568        N574   1.158       .  T
C577        C578   1.410   1_556  A
C577        C582   1.411       .  A
C577        C595   1.452       .  S
C578        C579   1.411       .  A
C578        C583   1.504       .  S
C579        C580   1.417       .  A
C579        C584   1.451       .  S
C580        C581   1.417   1_554  A
C580        C596   1.447       .  S
C581        C582   1.415       .  A
C582        C585   1.446       .  S
C583        C586   1.410       .  A
C583        C590   1.409   1_554  A
C584        N601   1.157       .  T
C585        N603   1.157       .  T
C586        C587   1.415       .  A
C586        C591   1.451       .  S
C587        C588   1.422   1_554  A
C587        C593   1.451       .  S
C588        C589   1.424       .  A
C589        C590   1.414       .  A
C589        C592   1.452       .  S
C590        C594   1.452       .  S
C591        N598   1.157       .  T
C592        N599   1.158       .  T
C593        N597   1.157       .  T
C594        N600   1.157       .  T
C595        N604   1.157       .  T
C596        N602   1.157       .  T
C605        C606   1.409       .  A
C605        C610   1.411       .  A
C605        C623   1.452       .  S
C606        C607   1.408       .  A
C606        C611   1.497       .  S
C607        C608   1.410       .  A
C607        C612   1.452       .  S
C608        C609   1.422       .  A
C608        C624   1.452       .  S
C609        C610   1.415       .  A
C610        C613   1.447       .  S
C611        C614   1.411       .  A
C611        C618   1.405       .  A
C612        N629   1.158       .  T
C613        N631   1.156       .  T
C614        C615   1.414       .  A
C614        C619   1.452       .  S
C615        C616   1.423       .  A
C615        C621   1.451       .  S
C616        C617   1.424       .  A
C617        C618   1.407       .  A
C617        C620   1.452       .  S
C618        C622   1.452       .  S
C619        N626   1.157       .  T
C620        N627   1.157       .  T
C621        N625   1.158       .  T
C622        N628   1.157       .  T
C623        N632   1.157       .  T
C624        N630   1.158       .  T
C633        C634   1.410       .  A
C633        C638   1.413       .  A
C633        C651   1.451       .  S
C634        C635   1.408       .  A
C634        C639   1.492       .  S
C635        C636   1.405       .  A
C635        C640   1.452       .  S
C636        C637   1.418       .  A
C636        C652   1.453       .  S
C637        C638   1.414       .  A
C638        C641   1.448       .  S
C639        C642   1.406       .  A
C639        C646   1.412       .  A
C640        N657   1.157       .  T
C641        N659   1.157       .  T
C642        C643   1.407       .  A
C642        C647   1.452       .  S
C643        C644   1.419       .  A
C643        C649   1.451       .  S
C644        C645   1.415       .  A
C645        C646   1.411       .  A
C645        C648   1.451       .  S
C646        C650   1.451       .  S
C647        N654   1.157       .  T
C648        N655   1.158       .  T
C649        N653   1.157       .  T
C650        N656   1.157       .  T
C651        N660   1.157       .  T
C652        N658   1.157       .  T
C661        C662   1.401       .  A
C661        C666   1.407       .  A
C661        C679   1.454       .  S
C662        C663   1.408       .  A
C662        C667   1.490       .  S
C663        C664   1.412       .  A
C663        C668   1.451       .  S
C664        C665   1.421       .  A
C664        C680   1.451       .  S
C665        C666   1.430       .  A
C666        C669   1.451       .  S
C667        C670   1.407       .  A
C667        C674   1.406       .  A
C668        N685   1.157       .  T
C669        N687   1.157       .  T
C670        C671   1.408       .  A
C670        C675   1.452       .  S
C671        C672   1.415       .  A
C671        C677   1.447       .  S
C672        C673   1.421       .  A
C673        C674   1.410       .  A
C673        C676   1.452       .  S
C674        C678   1.452       .  S
C675        N682   1.157       .  T
C676        N683   1.158       .  T
C677        N681   1.156       .  T
C678        N684   1.157       .  T
C679        N688   1.157       .  T
C680        N686   1.158       .  T
C689        C690   1.407       .  A
C689        C694   1.403       .  A
C689        C707   1.453       .  S
C690        C691   1.408       .  A
C690        C695   1.484       .  S
C691        C692   1.409       .  A
C691        C696   1.451       .  S
C692        C693   1.413       .  A
C692        C708   1.448       .  S
C693        C694   1.416       .  A
C694        C697   1.452       .  S
C695        C698   1.411       .  A
C695        C702   1.405       .  A
C696        N713   1.157       .  T
C697        N715   1.157       .  T
C698        C699   1.407       .  A
C698        C703   1.452       .  S
C699        C700   1.415       .  A
C699        C705   1.452       .  S
C700        C701   1.419       .  A
C701        C702   1.403       .  A
C701        C704   1.450       .  S
C702        C706   1.453       .  S
C703        N710   1.157       .  T
C704        N711   1.156       .  T
C705        N709   1.157       .  T
C706        N712   1.157       .  T
C707        N716   1.157       .  T
C708        N714   1.157       .  T
C717        C718   1.412       .  A
C717        C722   1.410       .  A
C717        C735   1.452       .  S
C718        C719   1.411   1_556  A
C718        C723   1.498       .  S
C719        C720   1.411       .  A
C719        C724   1.450       .  S
C720        C721   1.414   1_554  A
C720        C736   1.449       .  S
C721        C722   1.416       .  A
C722        C725   1.449       .  S
C723        C726   1.412       .  A
C723        C730   1.408       .  A
C724        N741   1.157       .  T
C725        N743   1.157       .  T
C726        C727   1.412       .  A
C726        C731   1.451       .  S
C727        C728   1.413       .  A
C727        C733   1.448       .  S
C728        C729   1.415       .  A
C729        C730   1.409       .  A
C729        C732   1.448   1_556  S
C730        C734   1.452   1_556  S
C731        N738   1.157       .  T
C732        N739   1.156       .  T
C733        N737   1.157       .  T
C734        N740   1.157       .  T
C735        N744   1.157       .  T
C736        N742   1.157       .  T
C745        C746   1.411       .  A
C745        C750   1.413       .  A
C745        C763   1.448       .  S
C746        C747   1.407   1_556  A
C746        C751   1.492       .  S
C747        C748   1.402       .  A
C747        C752   1.452       .  S
C748        C749   1.417   1_554  A
C748        C764   1.453       .  S
C749        C750   1.413       .  A
C750        C753   1.449       .  S
C751        C754   1.408   1_556  A
C751        C758   1.413       .  A
C752        N769   1.157       .  T
C753        N771   1.157       .  T
C754        C755   1.406       .  A
C754        C759   1.452       .  S
C755        C756   1.413   1_554  A
C755        C761   1.448       .  S
C756        C757   1.413       .  A
C757        C758   1.412       .  A
C757        C760   1.450       .  S
C758        C762   1.451       .  S
C759        N766   1.157       .  T
C760        N767   1.157       .  T
C761        N765   1.155       .  T
C762        N768   1.157       .  T
C763        N772   1.156       .  T
C764        N770   1.157       .  T
C773        C774   1.408       .  A
C773        C778   1.411   1_554  A
C773        C791   1.452   1_554  S
C774        C775   1.399       .  A
C774        C779   1.486       .  S
C775        C776   1.406       .  A
C775        C780   1.455       .  S
C776        C777   1.437       .  A
C776        C792   1.454       .  S
C777        C778   1.422   1_554  A
C778        C781   1.451       .  S
C779        C782   1.406       .  A
C779        C786   1.406   1_554  A
C780        N797   1.157       .  T
C781        N799   1.158       .  T
C782        C783   1.405       .  A
C782        C787   1.452       .  S
C783        C784   1.418       .  A
C783        C789   1.451       .  S
C784        C785   1.415   1_554  A
C785        C786   1.408       .  A
C785        C788   1.447       .  S
C786        C790   1.451       .  S
C787        N794   1.157       .  T
C788        N795   1.156       .  T
C789        N793   1.157       .  T
C790        N796   1.157       .  T
C791        N800   1.157       .  T
C792        N798   1.158       .  T
C801        C802   1.406       .  A
C801        C806   1.413       .  A
C801        C819   1.452       .  S
C802        C803   1.410       .  A
C802        C807   1.500       .  S
C803        C804   1.413   1_556  A
C803        C808   1.452   1_556  S
C804        C805   1.421   1_554  A
C804        C820   1.451       .  S
C805        C806   1.429       .  A
C806        C809   1.453       .  S
C807        C810   1.412   1_556  A
C807        C814   1.408       .  A
C808        N825   1.157       .  T
C809        N827   1.158       .  T
C810        C811   1.414       .  A
C810        C815   1.451       .  S
C811        C812   1.414   1_554  A
C811        C817   1.449       .  S
C812        C813   1.419       .  A
C813        C814   1.410       .  A
C813        C816   1.452       .  S
C814        C818   1.451       .  S
C815        N822   1.157       .  T
C816        N823   1.157       .  T
C817        N821   1.157       .  T
C818        N824   1.157       .  T
C819        N828   1.157       .  T
C820        N826   1.158       .  T
C829        C830   1.413       .  A
C829        C834   1.410       .  A
C829        C847   1.451       .  S
C830        C831   1.414       .  A
C830        C835   1.507       .  S
C831        C832   1.416       .  A
C831        C836   1.449       .  S
C832        C833   1.415       .  A
C832        C848   1.451       .  S
C833        C834   1.412       .  A
C834        C837   1.448       .  S
C835        C838   1.408       .  A
C835        C842   1.410       .  A
C836        N853   1.157       .  T
C837        N855   1.156       .  T
C838        C839   1.411       .  A
C838        C843   1.451       .  S
C839        C840   1.419       .  A
C839        C845   1.446       .  S
C840        C841   1.421       .  A
C841        C842   1.418       .  A
C841        C844   1.445       .  S
C842        C846   1.451       .  S
C843        N850   1.156       .  T
C844        N851   1.157       .  T
C845        N849   1.156       .  T
C846        N852   1.157       .  T
C847        N856   1.157       .  T
C848        N854   1.157       .  T
C857        C858   1.414       .  A
C857        C862   1.417       .  A
C857        C875   1.451       .  S
C858        C859   1.413       .  A
C858        C863   1.509       .  S
C859        C860   1.413       .  A
C859        C864   1.452       .  S
C860        C861   1.416       .  A
C860        C876   1.448       .  S
C861        C862   1.417       .  A
C862        C865   1.449       .  S
C863        C866   1.412       .  A
C863        C870   1.414       .  A
C864        N881   1.157       .  T
C865        N883   1.157       .  T
C866        C867   1.413       .  A
C866        C871   1.452       .  S
C867        C868   1.415       .  A
C867        C873   1.447       .  S
C868        C869   1.415       .  A
C869        C870   1.416       .  A
C869        C872   1.448       .  S
C870        C874   1.450       .  S
C871        N878   1.157       .  T
C872        N879   1.157       .  T
C873        N877   1.157       .  T
C874        N880   1.157       .  T
C875        N884   1.157       .  T
C876        N882   1.156       .  T
C885        C886   1.411       .  A
C885        C890   1.413       .  A
C885        C903   1.451       .  S
C886        C887   1.412       .  A
C886        C891   1.503       .  S
C887        C888   1.412       .  A
C887        C892   1.452       .  S
C888        C889   1.418       .  A
C888        C904   1.451       .  S
C889        C890   1.419       .  A
C890        C893   1.451       .  S
C891        C894   1.409       .  A
C891        C898   1.410       .  A
C892        N909   1.157       .  T
C893        N911   1.157       .  T
C894        C895   1.412       .  A
C894        C899   1.452       .  S
C895        C896   1.418       .  A
C895        C901   1.447       .  S
C896        C897   1.418       .  A
C897        C898   1.414       .  A
C897        C900   1.446       .  S
C898        C902   1.452       .  S
C899        N906   1.157       .  T
C900        N907   1.157       .  T
C901        N905   1.157       .  T
C902        N908   1.157       .  T
C903        N912   1.157       .  T
C904        N910   1.157       .  T
C913        C914   1.408       .  A
C913        C918   1.418       .  A
C913        C931   1.453       .  S
C914        C915   1.408       .  A
C914        C919   1.511       .  S
C915        C916   1.418       .  A
C915        C920   1.451       .  S
C916        C917   1.430       .  A
C916        C932   1.452       .  S
C917        C918   1.432       .  A
C918        C921   1.451       .  S
C919        C922   1.411       .  A
C919        C926   1.410       .  A
C920        N937   1.157       .  T
C921        N939   1.158       .  T
C922        C923   1.417       .  A
C922        C927   1.451       .  S
C923        C924   1.416       .  A
C923        C929   1.445       .  S
C924        C925   1.417       .  A
C925        C926   1.417       .  A
C925        C928   1.446       .  S
C926        C930   1.451       .  S
C927        N934   1.157       .  T
C928        N935   1.157       .  T
C929        N933   1.157       .  T
C930        N936   1.157       .  T
C931        N940   1.157       .  T
C932        N938   1.158       .  T
C941        C942   1.410       .  A
C941        C946   1.409       .  A
C941        C959   1.453       .  S
C942        C943   1.411       .  A
C942        C947   1.497       .  S
C943        C944   1.410       .  A
C943        C948   1.450       .  S
C944        C945   1.412       .  A
C944        C960   1.448       .  S
C945        C946   1.422       .  A
C946        C949   1.453       .  S
C947        C950   1.414       .  A
C947        C954   1.407       .  A
C948        N965   1.157       .  T
C949        N967   1.158       .  T
C950        C951   1.414       .  A
C950        C955   1.451       .  S
C951        C952   1.415       .  A
C951        C957   1.451       .  S
C952        C953   1.415       .  A
C953        C954   1.406       .  A
C953        C956   1.445       .  S
C954        C958   1.453       .  S
C955        N962   1.157       .  T
C956        N963   1.154       .  T
C957        N961   1.158       .  T
C958        N964   1.157       .  T
C959        N968   1.158       .  T
C960        N966   1.157       .  T
C969        C970   1.406       .  A
C969        C974   1.402       .  A
C969        C987   1.453       .  S
C970        C971   1.410       .  A
C970        C975   1.489       .  S
C971        C972   1.414       .  A
C971        C976   1.452       .  S
C972        C973   1.417       .  A
C972        C988   1.448       .  S
C973        C974   1.418       .  A
C974        C977   1.452       .  S
C975        C978   1.411       .  A
C975        C982   1.408       .  A
C976        N993   1.158       .  T
C977        N995   1.157       .  T
C978        C979   1.407       .  A
C978        C983   1.451       .  S
C979        C980   1.413       .  A
C979        C985   1.451       .  S
C980        C981   1.416       .  A
C981        C982   1.406       .  A
C981        C984   1.450       .  S
C982        C986   1.452       .  S
C983        N990   1.157       .  T
C984        N991   1.157       .  T
C985        N989   1.157       .  T
C986        N992   1.157       .  T
C987        N996   1.157       .  T
C988        N994   1.157       .  T
C997        C998   1.410       .  A
C997       C1002   1.406       .  A
C997       C1015   1.452       .  S
C998        C999   1.415       .  A
C998       C1003   1.494       .  S
C999       C1000   1.409       .  A
C999       C1004   1.452       .  S
C1000      C1001   1.411       .  A
C1000      C1016   1.451       .  S
C1001      C1002   1.412       .  A
C1002      C1005   1.449       .  S
C1003      C1006   1.413       .  A
C1003      C1010   1.410       .  A
C1004      N1021   1.157       .  T
C1005      N1023   1.156       .  T
C1006      C1007   1.409       .  A
C1006      C1011   1.452       .  S
C1007      C1008   1.411       .  A
C1007      C1013   1.448       .  S
C1008      C1009   1.417       .  A
C1009      C1010   1.405       .  A
C1009      C1012   1.454       .  S
C1010      C1014   1.452       .  S
C1011      N1018   1.157       .  T
C1012      N1019   1.158       .  T
C1013      N1017   1.157       .  T
C1014      N1020   1.157       .  T
C1015      N1024   1.157       .  T
C1016      N1022   1.157       .  T
C1025      C1026   1.412       .  A
C1025      C1030   1.413       .  A
C1025      C1043   1.451       .  S
C1026      C1027   1.415       .  A
C1026      C1031   1.510       .  S
C1027      C1028   1.417       .  A
C1027      C1032   1.451       .  S
C1028      C1029   1.414       .  A
C1028      C1044   1.447       .  S
C1029      C1030   1.418       .  A
C1030      C1033   1.452       .  S
C1031      C1034   1.416       .  A
C1031      C1038   1.415       .  A
C1032      N1049   1.157       .  T
C1033      N1051   1.157       .  T
C1034      C1035   1.417       .  A
C1034      C1039   1.450       .  S
C1035      C1036   1.412       .  A
C1035      C1041   1.450       .  S
C1036      C1037   1.413       .  A
C1037      C1038   1.413       .  A
C1037      C1040   1.451       .  S
C1038      C1042   1.451       .  S
C1039      N1046   1.157       .  T
C1040      N1047   1.157       .  T
C1041      N1045   1.158       .  T
C1042      N1048   1.157       .  T
C1043      N1052   1.157       .  T
C1044      N1050   1.157       .  T
C1053      C1054   1.412   1_554  A
C1053      C1058   1.409       .  A
C1053      C1071   1.450       .  S
C1054      C1055   1.407       .  A
C1054      C1059   1.492       .  S
C1055      C1056   1.406       .  A
C1055      C1060   1.453       .  S
C1056      C1057   1.416       .  A
C1056      C1072   1.447       .  S
C1057      C1058   1.413   1_556  A
C1058      C1061   1.451       .  S
C1059      C1062   1.408       .  A
C1059      C1066   1.409   1_556  A
C1060      N1077   1.157       .  T
C1061      N1079   1.157       .  T
C1062      C1063   1.406       .  A
C1062      C1067   1.453       .  S
C1063      C1064   1.421       .  A
C1063      C1069   1.453       .  S
C1064      C1065   1.415       .  A
C1065      C1066   1.410   1_556  A
C1065      C1068   1.447   1_556  S
C1066      C1070   1.452       .  S
C1067      N1074   1.157       .  T
C1068      N1075   1.157       .  T
C1069      N1073   1.157       .  T
C1070      N1076   1.157       .  T
C1071      N1080   1.157       .  T
C1072      N1078   1.155       .  T
C1081      C1082   1.406   1_556  A
C1081      C1086   1.408       .  A
C1081      C1099   1.451       .  S
C1082      C1083   1.408       .  A
C1082      C1087   1.488       .  S
C1083      C1084   1.408       .  A
C1083      C1088   1.453       .  S
C1084      C1085   1.419       .  A
C1084      C1100   1.450       .  S
C1085      C1086   1.420   1_554  A
C1086      C1089   1.452       .  S
C1087      C1090   1.411       .  A
C1087      C1094   1.407   1_554  A
C1088      N1105   1.157       .  T
C1089      N1107   1.157       .  T
C1090      C1091   1.410       .  A
C1090      C1095   1.450       .  S
C1091      C1092   1.410       .  A
C1091      C1097   1.449       .  S
C1092      C1093   1.416   1_554  A
C1093      C1094   1.404       .  A
C1093      C1096   1.453       .  S
C1094      C1098   1.452       .  S
C1095      N1102   1.157       .  T
C1096      N1103   1.157       .  T
C1097      N1101   1.157       .  T
C1098      N1104   1.157       .  T
C1099      N1108   1.157       .  T
C1100      N1106   1.157       .  T
C1109      C1110   1.412       .  A
C1109      C1114   1.408       .  A
C1109      C1127   1.452       .  S
C1110      C1111   1.407   1_556  A
C1110      C1115   1.490       .  S
C1111      C1112   1.407       .  A
C1111      C1116   1.451       .  S
C1112      C1113   1.416   1_554  A
C1112      C1128   1.450       .  S
C1113      C1114   1.413       .  A
C1114      C1117   1.451       .  S
C1115      C1118   1.405       .  A
C1115      C1122   1.408       .  A
C1116      N1133   1.157       .  T
C1117      N1135   1.157       .  T
C1118      C1119   1.407       .  A
C1118      C1123   1.452   1_556  S
C1119      C1120   1.418       .  A
C1119      C1125   1.449       .  S
C1120      C1121   1.413       .  A
C1121      C1122   1.410       .  A
C1121      C1124   1.447       .  S
C1122      C1126   1.452       .  S
C1123      N1130   1.157       .  T
C1124      N1131   1.157       .  T
C1125      N1129   1.157   1_556  T
C1126      N1132   1.157       .  T
C1127      N1136   1.157       .  T
C1128      N1134   1.157       .  T
C1137      C1138   1.412   1_556  A
C1137      C1142   1.412       .  A
C1137      C1155   1.451       .  S
C1138      C1139   1.409       .  A
C1138      C1143   1.500       .  S
C1139      C1140   1.412       .  A
C1139      C1144   1.452       .  S
C1140      C1141   1.419       .  A
C1140      C1156   1.449       .  S
C1141      C1142   1.416   1_554  A
C1142      C1145   1.451       .  S
C1143      C1146   1.409       .  A
C1143      C1150   1.412   1_554  A
C1144      N1161   1.157       .  T
C1145      N1163   1.157       .  T
C1146      C1147   1.410       .  A
C1146      C1151   1.452       .  S
C1147      C1148   1.419   1_554  A
C1147      C1153   1.452       .  S
C1148      C1149   1.414       .  A
C1149      C1150   1.414       .  A
C1149      C1152   1.448       .  S
C1150      C1154   1.451       .  S
C1151      N1158   1.157       .  T
C1152      N1159   1.157       .  T
C1153      N1157   1.157       .  T
C1154      N1160   1.157       .  T
C1155      N1164   1.157       .  T
C1156      N1162   1.156       .  T
C1165      C1166   1.414       .  A
C1165      C1170   1.418       .  A
C1165      C1183   1.450       .  S
C1166      C1167   1.412       .  A
C1166      C1171   1.514       .  S
C1167      C1168   1.417       .  A
C1167      C1172   1.451       .  S
C1168      C1169   1.423       .  A
C1168      C1184   1.451       .  S
C1169      C1170   1.420       .  A
C1170      C1173   1.451       .  S
C1171      C1174   1.413       .  A
C1171      C1178   1.411       .  A
C1172      N1189   1.157       .  T
C1173      N1191   1.158       .  T
C1174      C1175   1.419       .  A
C1174      C1179   1.451       .  S
C1175      C1176   1.419       .  A
C1175      C1181   1.447       .  S
C1176      C1177   1.419       .  A
C1177      C1178   1.418       .  A
C1177      C1180   1.447       .  S
C1178      C1182   1.451       .  S
C1179      N1186   1.157       .  T
C1180      N1187   1.157       .  T
C1181      N1185   1.157       .  T
C1182      N1188   1.157       .  T
C1183      N1192   1.157       .  T
C1184      N1190   1.157       .  T
C1193      C1194   1.410       .  A
C1193      C1198   1.412       .  A
C1193      C1211   1.452       .  S
C1194      C1195   1.408       .  A
C1194      C1199   1.498       .  S
C1195      C1196   1.413       .  A
C1195      C1200   1.451       .  S
C1196      C1197   1.420       .  A
C1196      C1212   1.450       .  S
C1197      C1198   1.419       .  A
C1198      C1201   1.451       .  S
C1199      C1202   1.409       .  A
C1199      C1206   1.409       .  A
C1200      N1217   1.157       .  T
C1201      N1219   1.157       .  T
C1202      C1203   1.411       .  A
C1202      C1207   1.451       .  S
C1203      C1204   1.416       .  A
C1203      C1209   1.447       .  S
C1204      C1205   1.414       .  A
C1205      C1206   1.410       .  A
C1205      C1208   1.447       .  S
C1206      C1210   1.451       .  S
C1207      N1214   1.157       .  T
C1208      N1215   1.157       .  T
C1209      N1213   1.157       .  T
C1210      N1216   1.157       .  T
C1211      N1220   1.157       .  T
C1212      N1218   1.157       .  T
C1221      C1222   1.410       .  A
C1221      C1226   1.413       .  A
C1221      C1239   1.451       .  S
C1222      C1223   1.411       .  A
C1222      C1227   1.504       .  S
C1223      C1224   1.414       .  A
C1223      C1228   1.452       .  S
C1224      C1225   1.417       .  A
C1224      C1240   1.447       .  S
C1225      C1226   1.415       .  A
C1226      C1229   1.446       .  S
C1227      C1230   1.409       .  A
C1227      C1234   1.411       .  A
C1228      N1245   1.157       .  T
C1229      N1247   1.157       .  T
C1230      C1231   1.414       .  A
C1230      C1235   1.452       .  S
C1231      C1232   1.424       .  A
C1231      C1237   1.450       .  S
C1232      C1233   1.420       .  A
C1233      C1234   1.414       .  A
C1233      C1236   1.452       .  S
C1234      C1238   1.451       .  S
C1235      N1242   1.157       .  T
C1236      N1243   1.157       .  T
C1237      N1241   1.157       .  T
C1238      N1244   1.157       .  T
C1239      N1248   1.157       .  T
C1240      N1246   1.157       .  T
C1249      C1250   1.411       .  A
C1249      C1254   1.417       .  A
C1249      C1267   1.451       .  S
C1250      C1251   1.411       .  A
C1250      C1255   1.510       .  S
C1251      C1252   1.415       .  A
C1251      C1256   1.453       .  S
C1252      C1253   1.428       .  A
C1252      C1268   1.452       .  S
C1253      C1254   1.426       .  A
C1254      C1257   1.452       .  S
C1255      C1258   1.413       .  A
C1255      C1262   1.416       .  A
C1256      N1273   1.157       .  T
C1257      N1275   1.158       .  T
C1258      C1259   1.409       .  A
C1258      C1263   1.453       .  S
C1259      C1260   1.412       .  A
C1259      C1265   1.447       .  S
C1260      C1261   1.411       .  A
C1261      C1262   1.418       .  A
C1261      C1264   1.446       .  S
C1262      C1266   1.449       .  S
C1263      N1270   1.157       .  T
C1264      N1271   1.157       .  T
C1265      N1269   1.157       .  T
C1266      N1272   1.157       .  T
C1267      N1276   1.157       .  T
C1268      N1274   1.158       .  T
C1277      C1278   1.409       .  A
C1277      C1282   1.407       .  A
C1277      C1295   1.453       .  S
C1278      C1279   1.409   1_565  A
C1278      C1283   1.496       .  S
C1279      C1280   1.413   1_545  A
C1279      C1284   1.452       .  S
C1280      C1281   1.417       .  A
C1280      C1296   1.447   1_565  S
C1281      C1282   1.419       .  A
C1282      C1285   1.452       .  S
C1283      C1286   1.411   1_565  A
C1283      C1290   1.407       .  A
C1284      N1301   1.157       .  T
C1285      N1303   1.157       .  T
C1286      C1287   1.411       .  A
C1286      C1291   1.451       .  S
C1287      C1288   1.417   1_545  A
C1287      C1293   1.452       .  S
C1288      C1289   1.420       .  A
C1289      C1290   1.409       .  A
C1289      C1292   1.449       .  S
C1290      C1294   1.453       .  S
C1291      N1298   1.157       .  T
C1292      N1299   1.156       .  T
C1293      N1297   1.157       .  T
C1294      N1300   1.157       .  T
C1295      N1304   1.157       .  T
C1296      N1302   1.157       .  T
C1305      C1306   1.408   1_565  A
C1305      C1310   1.411       .  A
C1305      C1323   1.450       .  S
C1306      C1307   1.410       .  A
C1306      C1311   1.492       .  S
C1307      C1308   1.407       .  A
C1307      C1312   1.452       .  S
C1308      C1309   1.414   1_545  A
C1308      C1324   1.449       .  S
C1309      C1310   1.418       .  A
C1310      C1313   1.451       .  S
C1311      C1314   1.411       .  A
C1311      C1318   1.407   1_545  A
C1312      N1329   1.157       .  T
C1313      N1331   1.157       .  T
C1314      C1315   1.413       .  A
C1314      C1319   1.449       .  S
C1315      C1316   1.412       .  A
C1315      C1321   1.449       .  S
C1316      C1317   1.419   1_545  A
C1317      C1318   1.405       .  A
C1317      C1320   1.453       .  S
C1318      C1322   1.453       .  S
C1319      N1326   1.157       .  T
C1320      N1327   1.157       .  T
C1321      N1325   1.157       .  T
C1322      N1328   1.157       .  T
C1323      N1332   1.157       .  T
C1324      N1330   1.156       .  T
C1333      C1334   1.406   1_545  A
C1333      C1338   1.405       .  A
C1333      C1351   1.452       .  S
C1334      C1335   1.411       .  A
C1334      C1339   1.492       .  S
C1335      C1336   1.413       .  A
C1335      C1340   1.450       .  S
C1336      C1337   1.413   1_565  A
C1336      C1352   1.448       .  S
C1337      C1338   1.421       .  A
C1338      C1341   1.454       .  S
C1339      C1342   1.410       .  A
C1339      C1346   1.405   1_565  A
C1340      N1357   1.157       .  T
C1341      N1359   1.157       .  T
C1342      C1343   1.413       .  A
C1342      C1347   1.450       .  S
C1343      C1344   1.417       .  A
C1343      C1349   1.451       .  S
C1344      C1345   1.423   1_565  A
C1345      C1346   1.407       .  A
C1345      C1348   1.451       .  S
C1346      C1350   1.454       .  S
C1347      N1354   1.157       .  T
C1348      N1355   1.157       .  T
C1349      N1353   1.158       .  T
C1350      N1356   1.157       .  T
C1351      N1360   1.157       .  T
C1352      N1358   1.157       .  T
C1361      C1362   1.413       .  A
C1361      C1366   1.412       .  A
C1361      C1379   1.451       .  S
C1362      C1363   1.409       .  A
C1362      C1367   1.501       .  S
C1363      C1364   1.410       .  A
C1363      C1368   1.451       .  S
C1364      C1365   1.420       .  A
C1364      C1380   1.452       .  S
C1365      C1366   1.417       .  A
C1366      C1369   1.450       .  S
C1367      C1370   1.409       .  A
C1367      C1374   1.410       .  A
C1368      N1385   1.157       .  T
C1369      N1387   1.157       .  T
C1370      C1371   1.413       .  A
C1370      C1375   1.452       .  S
C1371      C1372   1.417       .  A
C1371      C1377   1.448       .  S
C1372      C1373   1.417       .  A
C1373      C1374   1.413       .  A
C1373      C1376   1.448       .  S
C1374      C1378   1.452       .  S
C1375      N1382   1.157       .  T
C1376      N1383   1.157       .  T
C1377      N1381   1.156       .  T
C1378      N1384   1.157       .  T
C1379      N1388   1.157       .  T
C1380      N1386   1.157       .  T
C1389      C1390   1.406       .  A
C1389      C1394   1.407       .  A
C1389      C1407   1.452       .  S
C1390      C1391   1.405       .  A
C1390      C1395   1.479       .  S
C1391      C1392   1.401       .  A
C1391      C1396   1.453       .  S
C1392      C1393   1.418       .  A
C1392      C1408   1.453       .  S
C1393      C1394   1.415       .  A
C1394      C1397   1.447       .  S
C1395      C1398   1.402       .  A
C1395      C1402   1.409       .  A
C1396      N1413   1.157       .  T
C1397      N1415   1.157       .  T
C1398      C1399   1.403       .  A
C1398      C1403   1.454       .  S
C1399      C1400   1.421       .  A
C1399      C1405   1.448       .  S
C1400      C1401   1.414       .  A
C1401      C1402   1.405       .  A
C1401      C1404   1.451       .  S
C1402      C1406   1.452       .  S
C1403      N1410   1.157       .  T
C1404      N1411   1.157       .  T
C1405      N1409   1.156       .  T
C1406      N1412   1.157       .  T
C1407      N1416   1.157       .  T
C1408      N1414   1.157       .  T
C1417      C1418   1.402       .  A
C1417      C1422   1.407       .  A
C1417      C1435   1.452       .  S
C1418      C1419   1.410       .  A
C1418      C1423   1.489       .  S
C1419      C1420   1.411       .  A
C1419      C1424   1.452       .  S
C1420      C1421   1.419       .  A
C1420      C1436   1.452       .  S
C1421      C1422   1.426       .  A
C1422      C1425   1.450       .  S
C1423      C1426   1.409       .  A
C1423      C1430   1.405       .  A
C1424      N1441   1.157       .  T
C1425      N1443   1.156       .  T
C1426      C1427   1.411       .  A
C1426      C1431   1.451       .  S
C1427      C1428   1.413       .  A
C1427      C1433   1.448       .  S
C1428      C1429   1.421       .  A
C1429      C1430   1.406       .  A
C1429      C1432   1.453       .  S
C1430      C1434   1.453       .  S
C1431      N1438   1.157       .  T
C1432      N1439   1.157       .  T
C1433      N1437   1.157       .  T
C1434      N1440   1.157       .  T
C1435      N1444   1.157       .  T
C1436      N1442   1.158       .  T
C1445      C1446   1.413       .  A
C1445      C1450   1.416       .  A
C1445      C1463   1.451       .  S
C1446      C1447   1.409       .  A
C1446      C1451   1.499       .  S
C1447      C1448   1.405       .  A
C1447      C1452   1.452       .  S
C1448      C1449   1.417       .  A
C1448      C1464   1.453       .  S
C1449      C1450   1.415       .  A
C1450      C1453   1.448       .  S
C1451      C1454   1.409       .  A
C1451      C1458   1.414       .  A
C1452      N1469   1.157       .  T
C1453      N1471   1.157       .  T
C1454      C1455   1.408       .  A
C1454      C1459   1.452       .  S
C1455      C1456   1.418       .  A
C1455      C1461   1.451       .  S
C1456      C1457   1.415       .  A
C1457      C1458   1.415       .  A
C1457      C1460   1.450       .  S
C1458      C1462   1.451       .  S
C1459      N1466   1.157       .  T
C1460      N1467   1.157       .  T
C1461      N1465   1.157       .  T
C1462      N1468   1.157       .  T
C1463      N1472   1.157       .  T
C1464      N1470   1.157       .  T
C1473      C1474   1.410       .  A
C1473      C1478   1.412       .  A
C1473      C1491   1.452       .  S
C1474      C1475   1.410   1_565  A
C1474      C1479   1.502       .  S
C1475      C1476   1.415       .  A
C1475      C1480   1.451       .  S
C1476      C1477   1.421   1_545  A
C1476      C1492   1.451       .  S
C1477      C1478   1.419       .  A
C1478      C1481   1.450       .  S
C1479      C1482   1.411   1_565  A
C1479      C1486   1.410       .  A
C1480      N1497   1.157       .  T
C1481      N1499   1.157       .  T
C1482      C1483   1.414       .  A
C1482      C1487   1.451       .  S
C1483      C1484   1.415   1_545  A
C1483      C1489   1.447       .  S
C1484      C1485   1.414       .  A
C1485      C1486   1.410       .  A
C1485      C1488   1.448       .  S
C1486      C1490   1.451       .  S
C1487      N1494   1.157       .  T
C1488      N1495   1.157       .  T
C1489      N1493   1.157       .  T
C1490      N1496   1.157       .  T
C1491      N1500   1.157       .  T
C1492      N1498   1.157       .  T
C1501      C1502   1.415   1_565  A
C1501      C1506   1.420       .  A
C1501      C1519   1.450       .  S
C1502      C1503   1.410       .  A
C1502      C1507   1.510       .  S
C1503      C1504   1.413       .  A
C1503      C1508   1.452       .  S
C1504      C1505   1.418   1_545  A
C1504      C1520   1.447       .  S
C1505      C1506   1.419       .  A
C1506      C1509   1.451       .  S
C1507      C1510   1.413       .  A
C1507      C1514   1.412   1_545  A
C1508      N1525   1.157       .  T
C1509      N1527   1.158       .  T
C1510      C1511   1.415       .  A
C1510      C1515   1.451       .  S
C1511      C1512   1.416       .  A
C1511      C1517   1.449       .  S
C1512      C1513   1.418   1_545  A
C1513      C1514   1.415       .  A
C1513      C1516   1.447       .  S
C1514      C1518   1.450       .  S
C1515      N1522   1.157       .  T
C1516      N1523   1.157       .  T
C1517      N1521   1.157       .  T
C1518      N1524   1.157       .  T
C1519      N1528   1.157       .  T
C1520      N1526   1.156       .  T
C1529      C1530   1.414       .  A
C1529      C1534   1.418       .  A
C1529      C1547   1.451       .  S
C1530      C1531   1.413   1_565  A
C1530      C1535   1.516       .  S
C1531      C1532   1.419       .  A
C1531      C1536   1.451       .  S
C1532      C1533   1.421   1_545  A
C1532      C1548   1.451       .  S
C1533      C1534   1.419       .  A
C1534      C1537   1.451       .  S
C1535      C1538   1.414   1_565  A
C1535      C1542   1.411       .  A
C1536      N1553   1.157       .  T
C1537      N1555   1.157       .  T
C1538      C1539   1.421       .  A
C1538      C1543   1.450       .  S
C1539      C1540   1.419   1_545  A
C1539      C1545   1.448       .  S
C1540      C1541   1.418       .  A
C1541      C1542   1.415       .  A
C1541      C1544   1.447       .  S
C1542      C1546   1.451       .  S
C1543      N1550   1.157       .  T
C1544      N1551   1.157       .  T
C1545      N1549   1.157       .  T
C1546      N1552   1.157       .  T
C1547      N1556   1.157       .  T
C1548      N1554   1.157       .  T
C1557      C1558   1.412       .  A
C1557      C1562   1.413       .  A
C1557      C1575   1.450       .  S
C1558      C1559   1.407   1_565  A
C1558      C1563   1.495       .  S
C1559      C1560   1.405       .  A
C1559      C1564   1.452       .  S
C1560      C1561   1.419   1_545  A
C1560      C1576   1.454       .  S
C1561      C1562   1.412       .  A
C1562      C1565   1.449       .  S
C1563      C1566   1.406   1_565  A
C1563      C1570   1.414       .  A
C1564      N1581   1.157       .  T
C1565      N1583   1.157       .  T
C1566      C1567   1.408       .  A
C1566      C1571   1.451       .  S
C1567      C1568   1.416   1_545  A
C1567      C1573   1.447       .  S
C1568      C1569   1.413       .  A
C1569      C1570   1.414       .  A
C1569      C1572   1.450       .  S
C1570      C1574   1.451       .  S
C1571      N1578   1.157       .  T
C1572      N1579   1.157       .  T
C1573      N1577   1.156       .  T
C1574      N1580   1.157       .  T
C1575      N1584   1.157       .  T
C1576      N1582   1.157       .  T
C1585      C1586   1.410   1_545  A
C1585      C1590   1.416       .  A
C1585      C1603   1.450       .  S
C1586      C1587   1.409       .  A
C1586      C1591   1.505       .  S
C1587      C1588   1.414       .  A
C1587      C1592   1.452       .  S
C1588      C1589   1.418       .  A
C1588      C1604   1.447       .  S
C1589      C1590   1.418   1_565  A
C1590      C1593   1.447       .  S
C1591      C1594   1.409       .  A
C1591      C1598   1.408   1_565  A
C1592      N1609   1.157       .  T
C1593      N1611   1.157       .  T
C1594      C1595   1.416       .  A
C1594      C1599   1.451       .  S
C1595      C1596   1.424       .  A
C1595      C1601   1.451       .  S
C1596      C1597   1.423   1_565  A
C1597      C1598   1.415       .  A
C1597      C1600   1.450       .  S
C1598      C1602   1.451       .  S
C1599      N1606   1.157       .  T
C1600      N1607   1.157       .  T
C1601      N1605   1.158       .  T
C1602      N1608   1.157       .  T
C1603      N1612   1.157       .  T
C1604      N1610   1.157       .  T
C1613      C1614   1.407       .  A
C1613      C1618   1.404       .  A
C1613      C1631   1.452       .  S
C1614      C1615   1.410       .  A
C1614      C1619   1.490       .  S
C1615      C1616   1.411       .  A
C1615      C1620   1.451       .  S
C1616      C1617   1.413       .  A
C1616      C1632   1.449       .  S
C1617      C1618   1.418       .  A
C1618      C1621   1.453       .  S
C1619      C1622   1.410       .  A
C1619      C1626   1.404       .  A
C1620      N1637   1.157       .  T
C1621      N1639   1.157       .  T
C1622      C1623   1.410       .  A
C1622      C1627   1.452       .  S
C1623      C1624   1.421       .  A
C1623      C1629   1.452       .  S
C1624      C1625   1.421       .  A
C1625      C1626   1.407       .  A
C1625      C1628   1.451       .  S
C1626      C1630   1.452       .  S
C1627      N1634   1.157       .  T
C1628      N1635   1.157       .  T
C1629      N1633   1.158       .  T
C1630      N1636   1.157       .  T
C1631      N1640   1.157       .  T
C1632      N1638   1.157       .  T
C1641      C1642   1.409       .  A
C1641      C1646   1.408       .  A
C1641      C1659   1.451       .  S
C1642      C1643   1.405       .  A
C1642      C1647   1.485       .  S
C1643      C1644   1.405       .  A
C1643      C1648   1.452       .  S
C1644      C1645   1.419       .  A
C1644      C1660   1.453       .  S
C1645      C1646   1.411       .  A
C1646      C1649   1.448       .  S
C1647      C1650   1.404       .  A
C1647      C1654   1.410       .  A
C1648      N1665   1.157       .  T
C1649      N1667   1.157       .  T
C1650      C1651   1.406       .  A
C1650      C1655   1.452       .  S
C1651      C1652   1.418       .  A
C1651      C1657   1.449       .  S
C1652      C1653   1.414       .  A
C1653      C1654   1.408       .  A
C1653      C1656   1.451       .  S
C1654      C1658   1.451       .  S
C1655      N1662   1.157       .  T
C1656      N1663   1.157       .  T
C1657      N1661   1.156       .  T
C1658      N1664   1.157       .  T
C1659      N1668   1.157       .  T
C1660      N1666   1.157       .  T
C1669      C1670   1.406       .  A
C1669      C1674   1.407       .  A
C1669      C1687   1.453       .  S
C1670      C1671   1.407       .  A
C1670      C1675   1.485       .  S
C1671      C1672   1.405       .  A
C1671      C1676   1.453       .  S
C1672      C1673   1.419       .  A
C1672      C1688   1.452       .  S
C1673      C1674   1.415       .  A
C1674      C1677   1.447       .  S
C1675      C1678   1.405       .  A
C1675      C1682   1.408       .  A
C1676      N1693   1.157       .  T
C1677      N1695   1.156       .  T
C1678      C1679   1.405       .  A
C1678      C1683   1.454       .  S
C1679      C1680   1.425       .  A
C1679      C1685   1.453       .  S
C1680      C1681   1.418       .  A
C1681      C1682   1.406       .  A
C1681      C1684   1.453       .  S
C1682      C1686   1.451       .  S
C1683      N1690   1.157       .  T
C1684      N1691   1.158       .  T
C1685      N1689   1.158       .  T
C1686      N1692   1.157       .  T
C1687      N1696   1.157       .  T
C1688      N1694   1.157       .  T
C1697      C1698   1.410       .  A
C1697      C1702   1.409       .  A
C1697      C1715   1.451       .  S
C1698      C1699   1.406       .  A
C1698      C1703   1.488       .  S
C1699      C1700   1.405       .  A
C1699      C1704   1.451       .  S
C1700      C1701   1.419       .  A
C1700      C1716   1.454       .  S
C1701      C1702   1.412       .  A
C1702      C1705   1.449       .  S
C1703      C1706   1.404       .  A
C1703      C1710   1.409       .  A
C1704      N1721   1.157       .  T
C1705      N1723   1.157       .  T
C1706      C1707   1.407       .  A
C1706      C1711   1.453       .  S
C1707      C1708   1.420       .  A
C1707      C1713   1.448       .  S
C1708      C1709   1.419       .  A
C1709      C1710   1.411       .  A
C1709      C1712   1.451       .  S
C1710      C1714   1.451       .  S
C1711      N1718   1.157       .  T
C1712      N1719   1.158       .  T
C1713      N1717   1.156       .  T
C1714      N1720   1.157       .  T
C1715      N1724   1.157       .  T
C1716      N1722   1.157       .  T
C1725      C1726   1.407   1_565  A
C1725      C1730   1.411       .  A
C1725      C1743   1.452       .  S
C1726      C1727   1.406       .  A
C1726      C1731   1.490       .  S
C1727      C1728   1.407       .  A
C1727      C1732   1.453       .  S
C1728      C1729   1.421       .  A
C1728      C1744   1.452       .  S
C1729      C1730   1.417   1_545  A
C1730      C1733   1.446       .  S
C1731      C1734   1.403       .  A
C1731      C1738   1.410   1_545  A
C1732      N1749   1.157       .  T
C1733      N1751   1.156       .  T
C1734      C1735   1.406       .  A
C1734      C1739   1.454       .  S
C1735      C1736   1.425       .  A
C1735      C1741   1.450       .  S
C1736      C1737   1.416   1_545  A
C1737      C1738   1.411       .  A
C1737      C1740   1.451       .  S
C1738      C1742   1.450       .  S
C1739      N1746   1.157       .  T
C1740      N1747   1.157       .  T
C1741      N1745   1.156       .  T
C1742      N1748   1.157       .  T
C1743      N1752   1.157       .  T
C1744      N1750   1.157       .  T
C1753      C1754   1.409   1_545  A
C1753      C1758   1.411       .  A
C1753      C1771   1.450       .  S
C1754      C1755   1.406       .  A
C1754      C1759   1.487       .  S
C1755      C1756   1.404       .  A
C1755      C1760   1.453       .  S
C1756      C1757   1.420       .  A
C1756      C1772   1.454       .  S
C1757      C1758   1.413   1_565  A
C1758      C1761   1.448       .  S
C1759      C1762   1.403       .  A
C1759      C1766   1.409   1_565  A
C1760      N1777   1.157       .  T
C1761      N1779   1.157       .  T
C1762      C1763   1.407       .  A
C1762      C1767   1.453       .  S
C1763      C1764   1.426       .  A
C1763      C1769   1.452       .  S
C1764      C1765   1.418   1_565  A
C1765      C1766   1.409       .  A
C1765      C1768   1.451       .  S
C1766      C1770   1.451       .  S
C1767      N1774   1.157       .  T
C1768      N1775   1.158       .  T
C1769      N1773   1.157       .  T
C1770      N1776   1.157       .  T
C1771      N1780   1.157       .  T
C1772      N1778   1.157       .  T
C1781      C1782   1.410       .  A
C1781      C1786   1.412       .  A
C1781      C1799   1.451       .  S
C1782      C1783   1.406   1_565  A
C1782      C1787   1.488       .  S
C1783      C1784   1.404   1_545  A
C1783      C1788   1.452       .  S
C1784      C1785   1.418       .  A
C1784      C1800   1.453   1_565  S
C1785      C1786   1.413       .  A
C1786      C1789   1.448       .  S
C1787      C1790   1.406   1_565  A
C1787      C1794   1.411       .  A
C1788      N1805   1.157       .  T
C1789      N1807   1.157       .  T
C1790      C1791   1.405       .  A
C1790      C1795   1.452       .  S
C1791      C1792   1.417   1_545  A
C1791      C1797   1.451       .  S
C1792      C1793   1.415       .  A
C1793      C1794   1.409       .  A
C1793      C1796   1.452       .  S
C1794      C1798   1.451       .  S
C1795      N1802   1.157       .  T
C1796      N1803   1.157       .  T
C1797      N1801   1.157       .  T
C1798      N1804   1.157       .  T
C1799      N1808   1.157       .  T
C1800      N1806   1.157       .  T
C1809      C1810   1.411   1_545  A
C1809      C1814   1.409       .  A
C1809      C1827   1.451       .  S
C1810      C1811   1.404       .  A
C1810      C1815   1.487       .  S
C1811      C1812   1.403       .  A
C1811      C1816   1.453       .  S
C1812      C1813   1.419       .  A
C1812      C1828   1.449       .  S
C1813      C1814   1.415   1_565  A
C1814      C1817   1.452       .  S
C1815      C1818   1.406       .  A
C1815      C1822   1.407   1_565  A
C1816      N1833   1.157       .  T
C1817      N1835   1.158       .  T
C1818      C1819   1.405       .  A
C1818      C1823   1.453       .  S
C1819      C1820   1.420       .  A
C1819      C1825   1.452       .  S
C1820      C1821   1.416   1_565  A
C1821      C1822   1.410       .  A
C1821      C1824   1.446       .  S
C1822      C1826   1.452       .  S
C1823      N1830   1.157       .  T
C1824      N1831   1.156       .  T
C1825      N1829   1.157       .  T
C1826      N1832   1.157       .  T
C1827      N1836   1.157       .  T
C1828      N1834   1.156       .  T
C1837      C1838   1.412       .  A
C1837      C1842   1.417       .  A
C1837      C1855   1.451       .  S
C1838      C1839   1.413       .  A
C1838      C1843   1.511       .  S
C1839      C1840   1.415       .  A
C1839      C1844   1.451       .  S
C1840      C1841   1.420       .  A
C1840      C1856   1.452       .  S
C1841      C1842   1.422       .  A
C1842      C1845   1.451       .  S
C1843      C1846   1.410       .  A
C1843      C1850   1.412       .  A
C1844      N1861   1.157       .  T
C1845      N1863   1.157       .  T
C1846      C1847   1.415       .  A
C1846      C1851   1.452       .  S
C1847      C1848   1.420       .  A
C1847      C1853   1.446       .  S
C1848      C1849   1.417       .  A
C1849      C1850   1.418       .  A
C1849      C1852   1.447       .  S
C1850      C1854   1.450       .  S
C1851      N1858   1.157       .  T
C1852      N1859   1.157       .  T
C1853      N1857   1.157       .  T
C1854      N1860   1.157       .  T
C1855      N1864   1.157       .  T
C1856      N1862   1.157       .  T
C1865      C1866   1.412       .  A
C1865      C1870   1.417       .  A
C1865      C1883   1.452       .  S
C1866      C1867   1.408       .  A
C1866      C1871   1.506       .  S
C1867      C1868   1.411       .  A
C1867      C1872   1.452       .  S
C1868      C1869   1.418       .  A
C1868      C1884   1.446       .  S
C1869      C1870   1.420       .  A
C1870      C1873   1.447       .  S
C1871      C1874   1.414       .  A
C1871      C1878   1.410       .  A
C1872      N1889   1.157       .  T
C1873      N1891   1.157       .  T
C1874      C1875   1.415       .  A
C1874      C1879   1.451       .  S
C1875      C1876   1.418       .  A
C1875      C1881   1.451       .  S
C1876      C1877   1.418       .  A
C1877      C1878   1.412       .  A
C1877      C1880   1.450       .  S
C1878      C1882   1.451       .  S
C1879      N1886   1.157       .  T
C1880      N1887   1.157       .  T
C1881      N1885   1.157       .  T
C1882      N1888   1.157       .  T
C1883      N1892   1.157       .  T
C1884      N1890   1.156       .  T
C1893      C1894   1.409       .  A
C1893      C1898   1.413       .  A
C1893      C1911   1.451       .  S
C1894      C1895   1.408       .  A
C1894      C1899   1.501       .  S
C1895      C1896   1.415       .  A
C1895      C1900   1.451       .  S
C1896      C1897   1.423       .  A
C1896      C1912   1.451       .  S
C1897      C1898   1.421       .  A
C1898      C1901   1.451       .  S
C1899      C1902   1.408       .  A
C1899      C1906   1.409       .  A
C1900      N1917   1.157       .  T
C1901      N1919   1.157       .  T
C1902      C1903   1.414       .  A
C1902      C1907   1.450       .  S
C1903      C1904   1.418       .  A
C1903      C1909   1.446       .  S
C1904      C1905   1.417       .  A
C1905      C1906   1.412       .  A
C1905      C1908   1.448       .  S
C1906      C1910   1.452       .  S
C1907      N1914   1.157       .  T
C1908      N1915   1.157       .  T
C1909      N1913   1.157       .  T
C1910      N1916   1.157       .  T
C1911      N1920   1.157       .  T
C1912      N1918   1.158       .  T
C1921      C1922   1.411       .  A
C1921      C1926   1.415       .  A
C1921      C1939   1.451       .  S
C1922      C1923   1.410       .  A
C1922      C1927   1.505       .  S
C1923      C1924   1.414       .  A
C1923      C1928   1.452       .  S
C1924      C1925   1.422       .  A
C1924      C1940   1.451       .  S
C1925      C1926   1.420       .  A
C1926      C1929   1.451       .  S
C1927      C1930   1.408       .  A
C1927      C1934   1.410       .  A
C1928      N1945   1.157       .  T
C1929      N1947   1.158       .  T
C1930      C1931   1.412       .  A
C1930      C1935   1.452       .  S
C1931      C1932   1.418       .  A
C1931      C1937   1.446       .  S
C1932      C1933   1.420       .  A
C1933      C1934   1.417       .  A
C1933      C1936   1.447       .  S
C1934      C1938   1.451       .  S
C1935      N1942   1.157       .  T
C1936      N1943   1.157       .  T
C1937      N1941   1.157       .  T
C1938      N1944   1.157       .  T
C1939      N1948   1.157       .  T
C1940      N1946   1.157       .  T
C1949      C1950   1.411   1_455  A
C1949      C1954   1.405       .  A
C1949      C1967   1.452       .  S
C1950      C1951   1.406       .  A
C1950      C1955   1.483       .  S
C1951      C1952   1.406       .  A
C1951      C1956   1.452       .  S
C1952      C1953   1.416       .  A
C1952      C1968   1.449       .  S
C1953      C1954   1.411   1_655  A
C1954      C1957   1.450       .  S
C1955      C1958   1.406       .  A
C1955      C1962   1.410   1_655  A
C1956      N1973   1.157       .  T
C1957      N1975   1.157       .  T
C1958      C1959   1.401       .  A
C1958      C1963   1.452       .  S
C1959      C1960   1.417   1_655  A
C1959      C1965   1.454       .  S
C1960      C1961   1.411       .  A
C1961      C1962   1.407       .  A
C1961      C1964   1.449       .  S
C1962      C1966   1.451       .  S
C1963      N1970   1.157       .  T
C1964      N1971   1.157       .  T
C1965      N1969   1.157       .  T
C1966      N1972   1.157       .  T
C1967      N1976   1.157       .  T
C1968      N1974   1.156       .  T
C1977      C1978   1.408   1_655  A
C1977      C1982   1.408       .  A
C1977      C1995   1.452       .  S
C1978      C1979   1.403       .  A
C1978      C1983   1.485       .  S
C1979      C1980   1.406       .  A
C1979      C1984   1.453       .  S
C1980      C1981   1.424       .  A
C1980      C1996   1.451       .  S
C1981      C1982   1.418   1_455  A
C1982      C1985   1.451       .  S
C1983      C1986   1.407       .  A
C1983      C1990   1.408   1_455  A
C1984      N2001   1.157       .  T
C1985      N2003   1.157       .  T
C1986      C1987   1.402       .  A
C1986      C1991   1.453       .  S
C1987      C1988   1.417       .  A
C1987      C1993   1.453       .  S
C1988      C1989   1.414   1_455  A
C1989      C1990   1.409       .  A
C1989      C1992   1.448       .  S
C1990      C1994   1.451       .  S
C1991      N1998   1.157       .  T
C1992      N1999   1.157       .  T
C1993      N1997   1.157       .  T
C1994      N2000   1.157       .  T
C1995      N2004   1.157       .  T
C1996      N2002   1.157       .  T
C2005      C2006   1.401   1_655  A
C2005      C2010   1.406       .  A
C2005      C2023   1.453       .  S
C2006      C2007   1.407       .  A
C2006      C2011   1.483   1_455  S
C2007      C2008   1.406       .  A
C2007      C2012   1.452       .  S
C2008      C2009   1.420       .  A
C2008      C2024   1.452       .  S
C2009      C2010   1.432   1_455  A
C2010      C2013   1.454       .  S
C2011      C2014   1.406   1_655  A
C2011      C2018   1.406       .  A
C2012      N2029   1.157       .  T
C2013      N2031   1.158       .  T
C2014      C2015   1.407       .  A
C2014      C2019   1.451       .  S
C2015      C2016   1.414   1_455  A
C2015      C2021   1.448       .  S
C2016      C2017   1.418       .  A
C2017      C2018   1.405       .  A
C2017      C2020   1.451       .  S
C2018      C2022   1.453       .  S
C2019      N2026   1.157       .  T
C2020      N2027   1.157       .  T
C2021      N2025   1.157       .  T
C2022      N2028   1.157       .  T
C2023      N2032   1.157       .  T
C2024      N2030   1.157       .  T
C2033      C2034   1.409       .  A
C2033      C2038   1.408       .  A
C2033      C2051   1.451       .  S
C2034      C2035   1.411   1_455  A
C2034      C2039   1.497       .  S
C2035      C2036   1.413       .  A
C2035      C2040   1.450       .  S
C2036      C2037   1.412   1_655  A
C2036      C2052   1.448       .  S
C2037      C2038   1.417       .  A
C2038      C2041   1.453       .  S
C2039      C2042   1.411   1_455  A
C2039      C2046   1.409       .  A
C2040      N2057   1.157       .  T
C2041      N2059   1.157       .  T
C2042      C2043   1.410       .  A
C2042      C2047   1.451       .  S
C2043      C2044   1.417   1_655  A
C2043      C2049   1.452       .  S
C2044      C2045   1.419       .  A
C2045      C2046   1.413       .  A
C2045      C2048   1.450       .  S
C2046      C2050   1.451       .  S
C2047      N2054   1.157       .  T
C2048      N2055   1.157       .  T
C2049      N2053   1.157       .  T
C2050      N2056   1.157       .  T
C2051      N2060   1.157       .  T
C2052      N2058   1.157       .  T
C2061      C2062   1.408   1_655  A
C2061      C2066   1.405       .  A
C2061      C2079   1.452       .  S
C2062      C2063   1.414       .  A
C2062      C2067   1.493       .  S
C2063      C2064   1.413       .  A
C2063      C2068   1.450       .  S
C2064      C2065   1.411       .  A
C2064      C2080   1.451       .  S
C2065      C2066   1.414   1_455  A
C2066      C2069   1.449       .  S
C2067      C2070   1.409   1_455  A
C2067      C2074   1.412       .  A
C2068      N2085   1.157       .  T
C2069      N2087   1.156       .  T
C2070      C2071   1.409       .  A
C2070      C2075   1.451       .  S
C2071      C2072   1.416       .  A
C2071      C2077   1.449       .  S
C2072      C2073   1.411   1_655  A
C2073      C2074   1.411       .  A
C2073      C2076   1.448       .  S
C2074      C2078   1.451       .  S
C2075      N2082   1.157       .  T
C2076      N2083   1.156       .  T
C2077      N2081   1.156       .  T
C2078      N2084   1.157       .  T
C2079      N2088   1.157       .  T
C2080      N2086   1.157       .  T
C2089      C2090   1.410   1_655  A
C2089      C2094   1.409       .  A
C2089      C2107   1.451       .  S
C2090      C2091   1.411       .  A
C2090      C2095   1.490       .  S
C2091      C2092   1.408       .  A
C2091      C2096   1.450       .  S
C2092      C2093   1.411       .  A
C2092      C2108   1.451       .  S
C2093      C2094   1.414   1_455  A
C2094      C2097   1.449       .  S
C2095      C2098   1.412       .  A
C2095      C2102   1.408   1_455  A
C2096      N2113   1.157       .  T
C2097      N2115   1.157       .  T
C2098      C2099   1.411       .  A
C2098      C2103   1.451       .  S
C2099      C2100   1.414   1_455  A
C2099      C2105   1.451       .  S
C2100      C2101   1.412       .  A
C2101      C2102   1.405       .  A
C2101      C2104   1.448       .  S
C2102      C2106   1.451       .  S
C2103      N2110   1.157       .  T
C2104      N2111   1.156       .  T
C2105      N2109   1.157       .  T
C2106      N2112   1.157       .  T
C2107      N2116   1.157       .  T
C2108      N2114   1.157       .  T
C2117      C2118   1.412       .  A
C2117      C2122   1.412       .  A
C2117      C2135   1.451       .  S
C2118      C2119   1.408       .  A
C2118      C2123   1.494       .  S
C2119      C2120   1.408       .  A
C2119      C2124   1.452       .  S
C2120      C2121   1.419       .  A
C2120      C2136   1.451       .  S
C2121      C2122   1.415       .  A
C2122      C2125   1.451       .  S
C2123      C2126   1.407       .  A
C2123      C2130   1.411       .  A
C2124      N2141   1.157       .  T
C2125      N2143   1.157       .  T
C2126      C2127   1.405       .  A
C2126      C2131   1.453       .  S
C2127      C2128   1.420       .  A
C2127      C2133   1.453       .  S
C2128      C2129   1.413       .  A
C2129      C2130   1.413       .  A
C2129      C2132   1.449       .  S
C2130      C2134   1.450       .  S
C2131      N2138   1.157       .  T
C2132      N2139   1.157       .  T
C2133      N2137   1.157       .  T
C2134      N2140   1.157       .  T
C2135      N2144   1.157       .  T
C2136      N2142   1.157       .  T
C2145      C2146   1.413       .  A
C2145      C2150   1.408       .  A
C2145      C2163   1.451       .  S
C2146      C2147   1.412       .  A
C2146      C2151   1.494       .  S
C2147      C2148   1.409       .  A
C2147      C2152   1.451       .  S
C2148      C2149   1.413       .  A
C2148      C2164   1.451       .  S
C2149      C2150   1.410       .  A
C2150      C2153   1.450       .  S
C2151      C2154   1.409       .  A
C2151      C2158   1.415       .  A
C2152      N2169   1.157       .  T
C2153      N2171   1.157       .  T
C2154      C2155   1.402       .  A
C2154      C2159   1.452       .  S
C2155      C2156   1.415       .  A
C2155      C2161   1.454       .  S
C2156      C2157   1.410       .  A
C2157      C2158   1.413       .  A
C2157      C2160   1.449       .  S
C2158      C2162   1.450       .  S
C2159      N2166   1.157       .  T
C2160      N2167   1.157       .  T
C2161      N2165   1.157       .  T
C2162      N2168   1.157       .  T
C2163      N2172   1.157       .  T
C2164      N2170   1.157       .  T
C2173      C2174   1.411       .  A
C2173      C2178   1.409       .  A
C2173      C2191   1.452       .  S
C2174      C2175   1.405       .  A
C2174      C2179   1.488       .  S
C2175      C2176   1.405       .  A
C2175      C2180   1.452       .  S
C2176      C2177   1.421       .  A
C2176      C2192   1.451       .  S
C2177      C2178   1.415       .  A
C2178      C2181   1.451       .  S
C2179      C2182   1.407       .  A
C2179      C2186   1.411       .  A
C2180      N2197   1.157       .  T
C2181      N2199   1.157       .  T
C2182      C2183   1.402       .  A
C2182      C2187   1.453       .  S
C2183      C2184   1.417       .  A
C2183      C2189   1.453       .  S
C2184      C2185   1.413       .  A
C2185      C2186   1.411       .  A
C2185      C2188   1.449       .  S
C2186      C2190   1.451       .  S
C2187      N2194   1.157       .  T
C2188      N2195   1.157       .  T
C2189      N2193   1.157       .  T
C2190      N2196   1.157       .  T
C2191      N2200   1.157       .  T
C2192      N2198   1.157       .  T
C2201      C2202   1.401       .  A
C2201      C2206   1.407       .  A
C2201      C2219   1.454       .  S
C2202      C2203   1.409       .  A
C2202      C2207   1.489       .  S
C2203      C2204   1.412       .  A
C2203      C2208   1.452       .  S
C2204      C2205   1.422       .  A
C2204      C2220   1.452       .  S
C2205      C2206   1.432       .  A
C2206      C2209   1.453       .  S
C2207      C2210   1.408       .  A
C2207      C2214   1.406       .  A
C2208      N2225   1.157       .  T
C2209      N2227   1.157       .  T
C2210      C2211   1.409       .  A
C2210      C2215   1.451       .  S
C2211      C2212   1.414       .  A
C2211      C2217   1.448       .  S
C2212      C2213   1.418       .  A
C2213      C2214   1.407       .  A
C2213      C2216   1.451       .  S
C2214      C2218   1.452       .  S
C2215      N2222   1.157       .  T
C2216      N2223   1.158       .  T
C2217      N2221   1.157       .  T
C2218      N2224   1.157       .  T
C2219      N2228   1.157       .  T
C2220      N2226   1.158       .  T
C2229      C2230   1.412       .  A
C2229      C2234   1.412       .  A
C2229      C2247   1.451       .  S
C2230      C2231   1.408       .  A
C2230      C2235   1.499       .  S
C2231      C2232   1.413       .  A
C2231      C2236   1.451       .  S
C2232      C2233   1.421       .  A
C2232      C2248   1.450       .  S
C2233      C2234   1.415       .  A
C2234      C2237   1.451       .  S
C2235      C2238   1.408       .  A
C2235      C2242   1.413       .  A
C2236      N2253   1.157       .  T
C2237      N2255   1.157       .  T
C2238      C2239   1.408       .  A
C2238      C2243   1.451       .  S
C2239      C2240   1.418       .  A
C2239      C2245   1.453       .  S
C2240      C2241   1.412       .  A
C2241      C2242   1.415       .  A
C2241      C2244   1.449       .  S
C2242      C2246   1.450       .  S
C2243      N2250   1.157       .  T
C2244      N2251   1.157       .  T
C2245      N2249   1.157       .  T
C2246      N2252   1.157       .  T
C2247      N2256   1.157       .  T
C2248      N2254   1.157       .  T
C2257      C2258   1.403       .  A
C2257      C2262   1.403       .  A
C2257      C2275   1.453       .  S
C2258      C2259   1.411       .  A
C2258      C2263   1.485       .  S
C2259      C2260   1.411       .  A
C2259      C2264   1.451       .  S
C2260      C2261   1.417       .  A
C2260      C2276   1.451       .  S
C2261      C2262   1.421       .  A
C2262      C2265   1.451       .  S
C2263      C2266   1.408       .  A
C2263      C2270   1.409       .  A
C2264      N2281   1.157       .  T
C2265      N2283   1.156       .  T
C2266      C2267   1.408       .  A
C2266      C2271   1.450       .  S
C2267      C2268   1.413       .  A
C2267      C2273   1.448       .  S
C2268      C2269   1.415       .  A
C2269      C2270   1.402       .  A
C2269      C2272   1.453       .  S
C2270      C2274   1.453       .  S
C2271      N2278   1.157       .  T
C2272      N2279   1.157       .  T
C2273      N2277   1.157       .  T
C2274      N2280   1.157       .  T
C2275      N2284   1.157       .  T
C2276      N2282   1.158       .  T
C2285      C2286   1.405       .  A
C2285      C2290   1.410       .  A
C2285      C2303   1.452       .  S
C2286      C2287   1.411       .  A
C2286      C2291   1.496       .  S
C2287      C2288   1.414       .  A
C2287      C2292   1.451       .  S
C2288      C2289   1.419       .  A
C2288      C2304   1.451       .  S
C2289      C2290   1.425       .  A
C2290      C2293   1.451       .  S
C2291      C2294   1.410       .  A
C2291      C2298   1.407       .  A
C2292      N2309   1.157       .  T
C2293      N2311   1.157       .  T
C2294      C2295   1.414       .  A
C2294      C2299   1.450       .  S
C2295      C2296   1.416       .  A
C2295      C2301   1.447       .  S
C2296      C2297   1.420       .  A
C2297      C2298   1.408       .  A
C2297      C2300   1.453       .  S
C2298      C2302   1.452       .  S
C2299      N2306   1.157       .  T
C2300      N2307   1.157       .  T
C2301      N2305   1.157       .  T
C2302      N2308   1.157       .  T
C2303      N2312   1.157       .  T
C2304      N2310   1.158       .  T
C2313      C2314   1.410       .  A
C2313      C2318   1.408       .  A
C2313      C2331   1.451       .  S
C2314      C2315   1.415       .  A
C2314      C2319   1.504       .  S
C2315      C2316   1.416       .  A
C2315      C2320   1.449       .  S
C2316      C2317   1.410       .  A
C2316      C2332   1.449       .  S
C2317      C2318   1.417       .  A
C2318      C2321   1.454       .  S
C2319      C2322   1.409       .  A
C2319      C2326   1.409       .  A
C2320      N2337   1.157       .  T
C2321      N2339   1.157       .  T
C2322      C2323   1.416       .  A
C2322      C2327   1.452       .  S
C2323      C2324   1.426       .  A
C2323      C2329   1.452       .  S
C2324      C2325   1.424       .  A
C2325      C2326   1.412       .  A
C2325      C2328   1.451       .  S
C2326      C2330   1.452       .  S
C2327      N2334   1.157       .  T
C2328      N2335   1.158       .  T
C2329      N2333   1.158       .  T
C2330      N2336   1.157       .  T
C2331      N2340   1.157       .  T
C2332      N2338   1.157       .  T
C2341      C2342   1.411   1_455  A
C2341      C2346   1.415       .  A
C2341      C2359   1.451       .  S
C2342      C2343   1.410       .  A
C2342      C2347   1.505   1_655  S
C2343      C2344   1.414       .  A
C2343      C2348   1.451       .  S
C2344      C2345   1.420       .  A
C2344      C2360   1.450       .  S
C2345      C2346   1.420   1_655  A
C2346      C2349   1.450       .  S
C2347      C2350   1.410   1_455  A
C2347      C2354   1.409       .  A
C2348      N2365   1.157       .  T
C2349      N2367   1.157       .  T
C2350      C2351   1.416       .  A
C2350      C2355   1.451       .  S
C2351      C2352   1.420   1_655  A
C2351      C2357   1.447       .  S
C2352      C2353   1.418       .  A
C2353      C2354   1.413       .  A
C2353      C2356   1.447       .  S
C2354      C2358   1.452       .  S
C2355      N2362   1.157       .  T
C2356      N2363   1.157       .  T
C2357      N2361   1.157       .  T
C2358      N2364   1.157       .  T
C2359      N2368   1.157       .  T
C2360      N2366   1.157       .  T
C2369      C2370   1.410       .  A
C2369      C2374   1.415       .  A
C2369      C2387   1.451       .  S
C2370      C2371   1.406   1_455  A
C2370      C2375   1.500       .  S
C2371      C2372   1.409       .  A
C2371      C2376   1.451       .  S
C2372      C2373   1.417   1_655  A
C2372      C2388   1.446       .  S
C2373      C2374   1.417       .  A
C2374      C2377   1.447       .  S
C2375      C2378   1.410   1_455  A
C2375      C2382   1.407       .  A
C2376      N2393   1.157       .  T
C2377      N2395   1.157       .  T
C2378      C2379   1.413       .  A
C2378      C2383   1.452       .  S
C2379      C2380   1.420       .  A
C2379      C2385   1.451       .  S
C2380      C2381   1.425   1_655  A
C2381      C2382   1.414       .  A
C2381      C2384   1.450       .  S
C2382      C2386   1.452       .  S
C2383      N2390   1.157       .  T
C2384      N2391   1.157       .  T
C2385      N2389   1.157       .  T
C2386      N2392   1.157       .  T
C2387      N2396   1.157       .  T
C2388      N2394   1.156       .  T
C2397      C2398   1.414       .  A
C2397      C2402   1.410       .  A
C2397      C2415   1.450       .  S
C2398      C2399   1.413   1_655  A
C2398      C2403   1.499       .  S
C2399      C2400   1.412       .  A
C2399      C2404   1.450       .  S
C2400      C2401   1.410   1_455  A
C2400      C2416   1.450       .  S
C2401      C2402   1.410       .  A
C2402      C2405   1.452       .  S
C2403      C2406   1.411       .  A
C2403      C2410   1.408       .  A
C2404      N2421   1.157       .  T
C2405      N2423   1.157       .  T
C2406      C2407   1.413       .  A
C2406      C2411   1.450       .  S
C2407      C2408   1.416       .  A
C2407      C2413   1.446       .  S
C2408      C2409   1.418       .  A
C2409      C2410   1.411       .  A
C2409      C2412   1.444       .  S
C2410      C2414   1.451       .  S
C2411      N2418   1.157       .  T
C2412      N2419   1.157       .  T
C2413      N2417   1.158       .  T
C2414      N2420   1.157       .  T
C2415      N2424   1.157       .  T
C2416      N2422   1.157       .  T
C2425      C2426   1.413   1_655  A
C2425      C2430   1.413       .  A
C2425      C2443   1.451       .  S
C2426      C2427   1.409       .  A
C2426      C2431   1.497       .  S
C2427      C2428   1.406       .  A
C2427      C2432   1.452       .  S
C2428      C2429   1.418       .  A
C2428      C2444   1.453       .  S
C2429      C2430   1.412   1_455  A
C2430      C2433   1.449       .  S
C2431      C2434   1.408       .  A
C2431      C2438   1.413   1_455  A
C2432      N2449   1.157       .  T
C2433      N2451   1.157       .  T
C2434      C2435   1.410       .  A
C2434      C2439   1.453       .  S
C2435      C2436   1.420       .  A
C2435      C2441   1.450       .  S
C2436      C2437   1.414   1_455  A
C2437      C2438   1.412       .  A
C2437      C2440   1.451       .  S
C2438      C2442   1.451       .  S
C2439      N2446   1.157       .  T
C2440      N2447   1.157       .  T
C2441      N2445   1.156       .  T
C2442      N2448   1.157       .  T
C2443      N2452   1.157       .  T
C2444      N2450   1.157       .  T
C2453      C2454   1.405       .  A
C2453      C2458   1.406       .  A
C2453      C2471   1.452       .  S
C2454      C2455   1.409   1_655  A
C2454      C2459   1.490       .  S
C2455      C2456   1.411       .  A
C2455      C2460   1.451       .  S
C2456      C2457   1.415   1_455  A
C2456      C2472   1.447       .  S
C2457      C2458   1.421       .  A
C2458      C2461   1.453       .  S
C2459      C2462   1.411   1_655  A
C2459      C2466   1.402       .  A
C2460      N2477   1.157       .  T
C2461      N2479   1.157       .  T
C2462      C2463   1.414       .  A
C2462      C2467   1.451       .  S
C2463      C2464   1.419   1_455  A
C2463      C2469   1.451       .  S
C2464      C2465   1.423       .  A
C2465      C2466   1.404       .  A
C2465      C2468   1.450       .  S
C2466      C2470   1.454       .  S
C2467      N2474   1.157       .  T
C2468      N2475   1.156       .  T
C2469      N2473   1.158       .  T
C2470      N2476   1.157       .  T
C2471      N2480   1.157       .  T
C2472      N2478   1.157       .  T
C2481      C2482   1.409   1_455  A
C2481      C2486   1.414       .  A
C2481      C2499   1.451       .  S
C2482      C2483   1.410       .  A
C2482      C2487   1.506       .  S
C2483      C2484   1.417       .  A
C2483      C2488   1.451       .  S
C2484      C2485   1.418       .  A
C2484      C2500   1.447       .  S
C2485      C2486   1.418   1_655  A
C2486      C2489   1.446       .  S
C2487      C2490   1.408       .  A
C2487      C2494   1.411   1_655  A
C2488      N2505   1.157       .  T
C2489      N2507   1.157       .  T
C2490      C2491   1.414       .  A
C2490      C2495   1.451       .  S
C2491      C2492   1.423       .  A
C2491      C2497   1.450       .  S
C2492      C2493   1.420   1_655  A
C2493      C2494   1.416       .  A
C2493      C2496   1.450       .  S
C2494      C2498   1.451       .  S
C2495      N2502   1.157       .  T
C2496      N2503   1.157       .  T
C2497      N2501   1.157       .  T
C2498      N2504   1.157       .  T
C2499      N2508   1.157       .  T
C2500      N2506   1.157       .  T
