geometry optimzed in LAMMPS
_audit_creation_date              2020-11-30 
_audit_creation_method            'lammps2cif' 
_symmetry_space_group_name_H-M    'P1' 
_symmetry_Int_Tables_number       1 
_symmetry_cell_setting            triclinic 
loop_ 
_symmetry_equiv_pos_as_xyz 
  x,y,z 
_cell_length_a                    31.93410719 
_cell_length_b                    31.940835450233042 
_cell_length_c                    31.941564912771337 
_cell_angle_alpha                 89.991583421266 
_cell_angle_beta                  89.99806843398326 
_cell_angle_gamma                 89.99678664110705 
loop_ 
_atom_site_label 
_atom_site_type_symbol 
_atom_site_fract_x 
_atom_site_fract_y 
_atom_site_fract_z 
_atom_site_charge 
Zr1        Zr  0.49279099  0.06108269  0.16750193     2.17500
O2          O  0.50948564  0.98649774  0.16590380    -0.50900
O3          O  0.53158847  0.07555452  0.10303337    -0.74100
O4          O  0.45257558  0.02294443  0.11639794    -0.80900
O5          O  0.56307356  0.06664417  0.26318786    -0.82600
O6          O  0.39471071  0.06099257  0.09913107    -0.78200
O7          O  0.55416281  0.03116446  0.20199754    -0.89900
O8          O  0.53208406  0.14576047  0.09134138    -0.75800
O9          O  0.46783625  0.11964327  0.12897142    -0.85300
O10         O  0.53153536  0.11954875  0.19234580    -0.85000
O11         O  0.41879059  0.06472780  0.18247320    -0.71800
O12         O  0.47684732  0.06497792  0.24089244    -0.83900
Zr13       Zr  0.41668108  0.18851943  0.24197525     2.26400
Zr14       Zr  0.39461546  0.12442166  0.14317611     2.06300
Zr15       Zr  0.51440560  0.12478615  0.26515965     2.10000
Zr16       Zr  0.50591860  0.17820123  0.15445374     1.78800
O17         O  0.51880255  0.09404543  0.33477522    -0.92700
O18         O  0.48387181  0.22402418  0.09755523    -0.40500
O19         O  0.49031444  0.18464160  0.22752346    -0.77200
O20         O  0.43293421  0.18425293  0.16848748    -0.95800
O21         O  0.37923172  0.12964812  0.21600495    -0.89200
O22         O  0.44130384  0.12987090  0.28083583    -0.92000
C23         C  0.53926340  0.10793484  0.08039549     1.01800
C24         C  0.57258197  0.03762182  0.23716496     1.14700
C25         C  0.41853034  0.02850874  0.09615777     1.05500
O26         O  0.39309992  0.14877373  0.07094446    -0.94100
O27         O  0.35056014  0.18776152  0.14210993    -0.89900
O28         O  0.36276273  0.22392165  0.20251427    -0.83000
C29         C  0.34494901  0.21911725  0.16695680     1.12100
O30         O  0.41835120  0.99710505  0.26613485    -0.96100
Zr31       Zr  0.40337182  0.07124368  0.25513715     1.88900
O32         O  0.35163203  0.17501835  0.28003352    -0.72800
O33         O  0.32228641  0.10043917  0.14158787    -0.52000
O34         O  0.34499675  0.02763698  0.23236698    -0.96700
O35         O  0.40492735  0.05818916  0.33049178    -0.53900
O36         O  0.34007066  0.10469986  0.28033342    -0.73300
C37         C  0.32891607  0.14257375  0.28730199     0.99100
O38         O  0.41975967  0.26491133  0.24796473    -0.62100
O39         O  0.58334106  0.15721268  0.26957358    -0.56900
O40         O  0.44767080  0.21545423  0.30681499    -0.93600
O41         O  0.51036981  0.18221416  0.31442818    -0.92000
O42         O  0.58114151  0.18942409  0.16049119    -0.92400
O43         O  0.52177035  0.25194885  0.16544937    -0.91200
C44         C  0.48319069  0.20979113  0.32497658     1.17900
H45         H  0.56116889  0.11548818  0.18788255     0.33800
H46         H  0.42445761  0.20952904  0.15431286     0.44700
H47         H  0.43674898  0.13376794  0.31045004     0.38200
H48         H  0.40446828  0.03947706  0.17421288     0.34700
H49         H  0.50955135  0.22899686  0.08090613     0.26500
H50         H  0.31526790  0.09868802  0.11144331     0.32400
H51         H  0.32870079  0.02196799  0.25812713     0.38300
H52         H  0.58995471  0.19900391  0.13235648     0.32800
H53         H  0.59485309  0.14757999  0.29669471     0.31700
H54         H  0.54579705  0.10416849  0.34617828     0.33400
H55         H  0.38209574  0.03784838  0.33555922     0.32300
H56         H  0.49695665  0.26310854  0.18032299     0.36300
H57         H  0.44941407  0.27162220  0.25405348     0.29100
H58         H  0.51693846  0.97999426  0.13651275     0.33300
H59         H  0.39508300  0.98588538  0.28325872     0.36100
H60         H  0.60059769  0.14276395  0.24826720     0.28700
H61         H  0.41586669  0.27600116  0.21928314     0.41600
H62         H  0.41890084  0.13728288  0.05815170     0.31700
H63         H  0.46620950  0.20609648  0.07945685     0.39300
H64         H  0.39465172  0.08428482  0.34366911     0.31100
H65         H  0.32358713  0.07094728  0.15105270     0.31200
H66         H  0.48267986  0.97175187  0.17098538     0.31500
Zr67       Zr  0.06214218  0.16704957  0.49290765     2.17500
O68         O  0.98827837  0.16381616  0.51233827    -0.50900
O69         O  0.07624988  0.10157064  0.53012178    -0.74100
O70         O  0.02295739  0.11800247  0.45081267    -0.80900
O71         O  0.07032524  0.26041046  0.56633131    -0.82600
O72         O  0.06066823  0.10170578  0.39245280    -0.78200
O73         O  0.03307115  0.20065136  0.55515322    -0.89900
O74         O  0.14647294  0.09022818  0.53146320    -0.75800
O75         O  0.12016065  0.12884933  0.46622335    -0.85300
O76         O  0.12130880  0.19085049  0.53147900    -0.85000
O77         O  0.06492913  0.18423339  0.41932148    -0.71800
O78         O  0.06620156  0.24091223  0.47895241    -0.83900
Zr79       Zr  0.18915450  0.24306873  0.41723850     2.26400
Zr80       Zr  0.12420889  0.14539744  0.39335632     2.06300
Zr81       Zr  0.12675423  0.26414629  0.51601106     2.10000
Zr82       Zr  0.17925242  0.15302362  0.50431661     1.78800
O83         O  0.09449690  0.33317581  0.51839129    -0.92700
O84         O  0.22262543  0.09491487  0.48057339    -0.40500
O85         O  0.18598869  0.22651006  0.49048899    -0.77200
O86         O  0.18456489  0.16919595  0.43174930    -0.95800
O87         O  0.12964236  0.21855336  0.37985160    -0.89200
O88         O  0.13109730  0.28171952  0.44343561    -0.92000
C89         C  0.10859310  0.07903395  0.53819117     1.01800
C90         C  0.04077330  0.23474426  0.57503723     1.14700
C91         C  0.02820249  0.09851382  0.41624441     1.05500
O92         O  0.14730612  0.07289650  0.38877765    -0.94100
O93         O  0.18742219  0.14468770  0.34917143    -0.89900
O94         O  0.22401714  0.20460836  0.36241204    -0.83000
C95         C  0.21895343  0.16940690  0.34402737     1.12100
O96         O  0.99829151  0.27000973  0.42277770    -0.96100
Zr97       Zr  0.07173588  0.25726866  0.40585244     1.88900
O98         O  0.17497833  0.28293478  0.35327452    -0.72800
O99         O  0.09984561  0.14746393  0.32118111    -0.52000
O100        O  0.02661280  0.23638454  0.34793607    -0.96700
O101        O  0.05970924  0.33276136  0.40820979    -0.53900
O102        O  0.10450087  0.28339149  0.34264614    -0.73300
C103        C  0.14220477  0.29062031  0.33111972     0.99100
O104        O  0.26560463  0.24911542  0.41995266    -0.62100
O105        O  0.15925753  0.27157418  0.58462825    -0.56900
O106        O  0.21701628  0.30674969  0.44946325    -0.93600
O107        O  0.18473146  0.31286921  0.51279261    -0.92000
O108        O  0.19352058  0.15839679  0.57903673    -0.92400
O109        O  0.25393611  0.16232393  0.51655686    -0.91200
C110        C  0.21201250  0.32393567  0.48551684     1.17900
H111        H  0.11775409  0.18577451  0.56107894     0.33800
H112        H  0.20968490  0.15504033  0.42279011     0.44700
H113        H  0.13515407  0.31141187  0.43957802     0.38200
H114        H  0.03949469  0.17665191  0.40495282     0.34700
H115        H  0.22697185  0.07735012  0.50574815     0.26500
H116        H  0.09797000  0.11770847  0.31269849     0.32400
H117        H  0.02235699  0.26225673  0.33138650     0.38300
H118        H  0.20346801  0.13018270  0.58717236     0.32800
H119        H  0.14534449  0.29616963  0.59738156     0.31700
H120        H  0.10154716  0.34419492  0.54649023     0.33400
H121        H  0.03955911  0.33833650  0.38532350     0.32300
H122        H  0.26430033  0.17654422  0.49102508     0.36300
H123        H  0.27255820  0.25345115  0.44985510     0.29100
H124        H  0.98236061  0.13397747  0.51837378     0.33300
H125        H  0.98676483  0.28699061  0.39955426     0.36100
H126        H  0.14901897  0.24739440  0.60109462     0.28700
H127        H  0.27686855  0.22080687  0.41427224     0.41600
H128        H  0.13809571  0.05995176  0.41540080     0.31700
H129        H  0.20393199  0.07808224  0.46246406     0.39300
H130        H  0.08602603  0.34572702  0.39821897     0.31100
H131        H  0.07038261  0.15692497  0.32311607     0.31200
H132        H  0.97246818  0.17018139  0.48643621     0.31500
Zr133      Zr  0.24313939  0.41700887  0.18749371     2.17500
O134        O  0.26259783  0.41244120  0.26127204    -0.50900
O135        O  0.28076666  0.35182901  0.17249967    -0.74100
O136        O  0.20168427  0.36707511  0.22599294    -0.80900
O137        O  0.31557049  0.51139028  0.18102900    -0.82600
O138        O  0.14344568  0.35060426  0.18817532    -0.78200
O139        O  0.30499360  0.45091246  0.21727782    -0.89900
O140        O  0.27949554  0.33983221  0.10240550    -0.75800
O141        O  0.21712959  0.37920567  0.12892841    -0.85300
O142        O  0.28196426  0.44187845  0.12904338    -0.85000
O143        O  0.16926909  0.43332635  0.18467500    -0.71800
O144        O  0.22818682  0.49076670  0.18412805    -0.83900
Zr145      Zr  0.16739295  0.49314872  0.06102054     2.26400
Zr146      Zr  0.14403896  0.39477835  0.12479797     2.06300
Zr147      Zr  0.26569982  0.51496724  0.12419468     2.10000
Zr148      Zr  0.25571186  0.40435463  0.07052807     1.78800
O149        O  0.27104613  0.58379265  0.15653523    -0.92700
O150        O  0.23360334  0.35033867  0.02139029    -0.40500
O151        O  0.24093423  0.47770176  0.06446754    -0.77200
O152        O  0.18277005  0.41935220  0.06486406    -0.95800
O153        O  0.12963108  0.46782041  0.11995342    -0.89200
O154        O  0.19283105  0.53147359  0.11967488    -0.92000
C155        C  0.28734871  0.32884226  0.14011580     1.01800
C156        C  0.32451256  0.48537521  0.21020287     1.14700
C157        C  0.16727756  0.34738286  0.22063741     1.05500
O158        O  0.13968915  0.32227899  0.10174050    -0.94100
O159        O  0.10039398  0.39418029  0.06102131    -0.89900
O160        O  0.11326394  0.45452412  0.02499770    -0.83000
C161        C  0.09513634  0.41909391  0.02961994     1.12100
O162        O  0.17311947  0.52272937  0.25073234    -0.96100
Zr163      Zr  0.15482312  0.50626418  0.17838855     1.88900
O164        O  0.10285832  0.53217363  0.07499459    -0.72800
O165        O  0.07153062  0.39595705  0.14830129    -0.52000
O166        O  0.09876092  0.48238083  0.22443974    -0.96700
O167        O  0.15318310  0.58175592  0.19059885    -0.53900
O168        O  0.09136053  0.53181626  0.14531818    -0.73300
C169        C  0.08027514  0.53951396  0.10755057     0.99100
O170        O  0.17164622  0.50052505  0.98482392    -0.62100
O171        O  0.33392455  0.52047628  0.09040461    -0.56900
O172        O  0.19819936  0.55813001  0.03465346    -0.93600
O173        O  0.26097139  0.56541008  0.06781737    -0.92000
O174        O  0.33149995  0.40527833  0.06174642    -0.92400
O175        O  0.27532666  0.41931376  0.99838067    -0.91200
C176        C  0.23363888  0.57630542  0.04052707     1.17900
H177        H  0.31156364  0.43710247  0.13298201     0.33800
H178        H  0.17407561  0.40536320  0.03957090     0.44700
H179        H  0.18860373  0.56116597  0.11602083     0.38200
H180        H  0.15497820  0.42526988  0.20999978     0.34700
H181        H  0.25917688  0.33365992  0.01597116     0.26500
H182        H  0.06354428  0.36608835  0.15055657     0.32400
H183        H  0.07965041  0.50666070  0.22698637     0.38300
H184        H  0.33836677  0.37759899  0.04958506     0.32800
H185        H  0.34697438  0.54562002  0.10299201     0.31700
H186        H  0.29701677  0.59603007  0.14482224     0.33400
H187        H  0.12877741  0.58624117  0.20919304     0.32300
H188        H  0.25088051  0.43428257  0.98656155     0.36300
H189        H  0.20172668  0.50483944  0.97861426     0.29100
H190        H  0.26913219  0.38258191  0.26654025     0.33300
H191        H  0.14781421  0.53536808  0.26341330     0.36100
H192        H  0.35046838  0.49674722  0.10153409     0.28700
H193        H  0.16604034  0.47242920  0.97301675     0.41600
H194        H  0.16807072  0.31075166  0.10652649     0.31700
H195        H  0.21544853  0.33153877  0.03806368     0.39300
H196        H  0.14451236  0.59448804  0.16370954     0.31100
H197        H  0.07295416  0.40590547  0.17762164     0.31200
H198        H  0.23662943  0.41805621  0.27726386     0.31500
Zr199      Zr  0.91763817  0.31129016  0.75477847     2.17500
O200        O  0.91455075  0.23749562  0.73521456    -0.50900
O201        O  0.85295421  0.32624124  0.71624248    -0.74100
O202        O  0.86708846  0.27258101  0.79542362    -0.80900
O203        O  0.01287535  0.31770987  0.68371612    -0.82600
O204        O  0.84934343  0.31101334  0.85286146    -0.78200
O205        O  0.95221993  0.28150818  0.69345725    -0.89900
O206        O  0.84181849  0.39649332  0.71564933    -0.75800
O207        O  0.87937629  0.36989983  0.77991786    -0.85300
O208        O  0.94335833  0.36964591  0.71632727    -0.85000
O209        O  0.93299567  0.31429281  0.82878284    -0.71800
O210        O  0.99107887  0.31471888  0.77120814    -0.83900
Zr211      Zr  0.99271153  0.43828743  0.83160365     2.26400
Zr212      Zr  0.89392502  0.37406876  0.85317473     2.06300
Zr213      Zr  0.01615968  0.37432510  0.73393835     2.10000
Zr214      Zr  0.90545159  0.42824121  0.74183505     1.78800
O215        O  0.08455828  0.34063834  0.73229198    -0.92700
O216        O  0.84996589  0.47587362  0.76357635    -0.40500
O217        O  0.97853805  0.43424167  0.75784532    -0.77200
O218        O  0.91925537  0.43400552  0.81492065    -0.95800
O219        O  0.96669010  0.37942105  0.86900849    -0.89200
O220        O  0.03153374  0.37962192  0.80698416    -0.92000
C221        C  0.83055083  0.35875650  0.70837791     1.01800
C222        C  0.98692968  0.28857225  0.67442172     1.14700
C223        C  0.84664437  0.27828251  0.82935603     1.05500
O224        O  0.82164792  0.39794089  0.85756761    -0.94100
O225        O  0.89204041  0.43759233  0.89673225    -0.89900
O226        O  0.95264771  0.47367620  0.88526259    -0.83000
C227        C  0.91676527  0.46898501  0.90252181     1.12100
O228        O  0.02476046  0.24935565  0.82618941    -0.96100
Zr229      Zr  0.00571731  0.32101937  0.84469071     1.88900
O230        O  0.03155669  0.42470057  0.89630763    -0.72800
O231        O  0.89498530  0.34890489  0.92509635    -0.52000
O232        O  0.98123341  0.27418657  0.89979543    -0.96700
O233        O  0.08136649  0.30983092  0.84745284    -0.53900
O234        O  0.02923937  0.35459202  0.90882424    -0.73300
C235        C  0.03760972  0.39235118  0.91955230     0.99100
O236        O  0.99936076  0.51463574  0.82863026    -0.62100
O237        O  0.02479025  0.40744224  0.66574903    -0.56900
O238        O  0.05751697  0.46516421  0.80057226    -0.93600
O239        O  0.06624499  0.43089926  0.73857602    -0.92000
O240        O  0.90911144  0.43848733  0.66634348    -0.92400
O241        O  0.91964424  0.50106040  0.72436758    -0.91200
C242        C  0.07636339  0.45880751  0.76555196     1.17900
H243        H  0.93912341  0.36579608  0.68663733     0.33800
H244        H  0.90505516  0.45928702  0.82331177     0.44700
H245        H  0.06114985  0.38344608  0.81160369     0.38200
H246        H  0.92463064  0.28901502  0.84297938     0.34700
H247        H  0.83301433  0.48048203  0.73803063     0.26500
H248        H  0.86517334  0.34826783  0.93359059     0.32400
H249        H  0.00530430  0.27144038  0.91914103     0.38300
H250        H  0.88148886  0.45029921  0.65865787     0.32800
H251        H  0.04967723  0.39371257  0.65336231     0.31700
H252        H  0.09612106  0.34762186  0.70438909     0.33400
H253        H  0.08573053  0.29107055  0.87174593     0.32300
H254        H  0.93410723  0.51239337  0.74933645     0.36300
H255        H  0.00467321  0.52136634  0.79883445     0.29100
H256        H  0.88482181  0.23168851  0.72854334     0.33300
H257        H  0.03585413  0.23633771  0.85203721     0.36100
H258        H  0.00097231  0.39726009  0.64873086     0.28700
H259        H  0.97094847  0.52607861  0.83338579     0.41600
H260        H  0.80952512  0.39154938  0.82976410     0.31700
H261        H  0.83178421  0.45881542  0.78200416     0.39300
H262        H  0.09359550  0.33679287  0.85659110     0.31100
H263        H  0.90311020  0.31907199  0.92285722     0.31200
H264        H  0.92029725  0.22167324  0.76125141     0.31500
Zr265      Zr  0.83178170  0.99353587  0.43711812     2.17500
O266        O  0.83522958  0.01305315  0.51092745    -0.50900
O267        O  0.89640393  0.03203919  0.42235073    -0.74100
O268        O  0.88180132  0.95242334  0.47609706    -0.80900
O269        O  0.73711045  0.06565415  0.43027445    -0.82600
O270        O  0.89866731  0.89430052  0.43828005    -0.78200
O271        O  0.79728629  0.05508522  0.46699772    -0.89900
O272        O  0.90743874  0.03325375  0.35208570    -0.75800
O273        O  0.86999234  0.96768228  0.37863118    -0.85300
O274        O  0.80705885  0.03217757  0.37841883    -0.85000
O275        O  0.81586816  0.91958308  0.43423011    -0.71800
O276        O  0.75819482  0.97810884  0.43341714    -0.83900
Zr277      Zr  0.75603226  0.91735993  0.31038452     2.26400
Zr278      Zr  0.85472572  0.89448620  0.37450368     2.06300
Zr279      Zr  0.73401597  0.01564600  0.37352250     2.10000
Zr280      Zr  0.84464814  0.00580955  0.31994034     1.78800
O281        O  0.66546248  0.02125178  0.40642944    -0.92700
O282        O  0.90190802  0.98367605  0.27457217    -0.40500
O283        O  0.77130214  0.99095337  0.31369858    -0.77200
O284        O  0.82975122  0.93301215  0.31462176    -0.95800
O285        O  0.78172515  0.87976965  0.36929213    -0.89200
O286        O  0.71764336  0.94272769  0.36901056    -0.92000
C287        C  0.91864429  0.04032934  0.38985302     1.01800
C288        C  0.76281204  0.07453934  0.45973601     1.14700
C289        C  0.90175470  0.91813093  0.47080133     1.05500
O290        O  0.92733791  0.88992397  0.35178728    -0.94100
O291        O  0.85586233  0.85139410  0.31020111    -0.89900
O292        O  0.79525352  0.86364874  0.27431846    -0.83000
C293        C  0.83095021  0.84596683  0.27878559     1.12100
O294        O  0.72543732  0.92329245  0.49962019    -0.96100
Zr295      Zr  0.74300935  0.90468968  0.42762369     1.88900
O296        O  0.71758522  0.85246850  0.32427237    -0.72800
O297        O  0.85324271  0.82198818  0.39798447    -0.52000
O298        O  0.76640315  0.84903539  0.47440638    -0.96700
O299        O  0.66735622  0.90294277  0.43877678    -0.53900
O300        O  0.71906428  0.84055371  0.39450175    -0.73300
C301        C  0.71111120  0.82952430  0.35675736     0.99100
O302        O  0.74932374  0.92105022  0.23410731    -0.62100
O303        O  0.72810127  0.08362258  0.33935089    -0.56900
O304        O  0.69053931  0.94782548  0.28447816    -0.93600
O305        O  0.68325674  0.01064138  0.31752723    -0.92000
O306        O  0.83917262  0.08076458  0.30696289    -0.92400
O307        O  0.83367123  0.01946378  0.24573976    -0.91200
C308        C  0.67224753  0.98321969  0.29040248     1.17900
H309        H  0.81178446  0.06180903  0.38216753     0.33800
H310        H  0.84385516  0.92456025  0.28931084     0.44700
H311        H  0.68795084  0.93845989  0.36539485     0.38200
H312        H  0.82390749  0.90533659  0.45958563     0.34700
H313        H  0.91889640  0.00922319  0.27008775     0.26500
H314        H  0.88303795  0.81447168  0.40211676     0.32400
H315        H  0.74194735  0.83017990  0.47718964     0.38300
H316        H  0.86684949  0.08878605  0.29550673     0.32800
H317        H  0.70253396  0.09633440  0.35143735     0.31700
H318        H  0.65285613  0.04677711  0.39414744     0.33400
H319        H  0.66273392  0.87915225  0.45810885     0.32300
H320        H  0.81997369  0.99379367  0.23503510     0.36300
H321        H  0.74284521  0.95069188  0.22772280     0.29100
H322        H  0.86498574  0.01972529  0.51659832     0.33300
H323        H  0.71294430  0.89795667  0.51237450     0.36100
H324        H  0.75137747  0.10054774  0.35084979     0.28700
H325        H  0.77797938  0.91756818  0.22280229     0.41600
H326        H  0.93993381  0.91698647  0.36014774     0.31700
H327        H  0.91959614  0.96560373  0.29250518     0.39300
H328        H  0.65511361  0.89326351  0.41200937     0.31100
H329        H  0.84145829  0.82328511  0.42662475     0.31200
H330        H  0.82952800  0.98704840  0.52682242     0.31500
Zr331      Zr  0.08184300  0.81166948  0.74400774     2.17500
O332        O  0.08395220  0.73736006  0.76175207    -0.50900
O333        O  0.14691967  0.82597039  0.78180573    -0.74100
O334        O  0.13217633  0.77309690  0.70295370    -0.80900
O335        O  0.98758005  0.81860751  0.81616677    -0.82600
O336        O  0.14893843  0.81113184  0.64494386    -0.78200
O337        O  0.04799419  0.78212610  0.80592374    -0.89900
O338        O  0.15779489  0.89626534  0.78351955    -0.75800
O339        O  0.12005256  0.87020589  0.71847823    -0.85300
O340        O  0.05707057  0.87025265  0.78278638    -0.85000
O341        O  0.06590009  0.81492025  0.67020597    -0.71800
O342        O  0.00825575  0.81560628  0.72876318    -0.83900
Zr343      Zr  0.00652647  0.93893307  0.66820558     2.26400
Zr344      Zr  0.10488467  0.87456630  0.64537996     2.06300
Zr345      Zr  0.98404330  0.87544623  0.76623405     2.10000
Zr346      Zr  0.09481657  0.92875168  0.75681531     1.78800
O347        O  0.91577276  0.84165745  0.76900731    -0.92700
O348        O  0.15195867  0.97474140  0.73576793    -0.40500
O349        O  0.02159066  0.93520220  0.74179666    -0.77200
O350        O  0.08020387  0.93453496  0.68389028    -0.95800
O351        O  0.03191032  0.87992120  0.63064144    -0.89200
O352        O  0.96777467  0.88042296  0.69334415    -0.92000
C353        C  0.16918906  0.85844558  0.79006618     1.01800
C354        C  0.01344614  0.78932682  0.82523455     1.14700
C355        C  0.15206739  0.77858431  0.66865974     1.05500
O356        O  0.17729195  0.89818356  0.64228286    -0.94100
O357        O  0.10585738  0.93803258  0.60149991    -0.89900
O358        O  0.04561410  0.97437293  0.61405848    -0.83000
C359        C  0.08109601  0.96950326  0.59609042     1.12100
O360        O  0.97898996  0.74846249  0.67250759    -0.96100
Zr361      Zr  0.99306695  0.82161638  0.65545221     1.88900
O362        O  0.96750862  0.92527946  0.60351793    -0.72800
O363        O  0.10460981  0.85050990  0.57307021    -0.52000
O364        O  0.01679934  0.77685823  0.59834392    -0.96700
O365        O  0.91768803  0.80860088  0.65578240    -0.53900
O366        O  0.96732077  0.85492039  0.59218033    -0.73300
C367        C  0.95995116  0.89272621  0.58097336     0.99100
O368        O  0.00066262  0.01528715  0.67224436    -0.62100
O369        O  0.97647780  0.90730244  0.83515972    -0.56900
O370        O  0.94205245  0.96620147  0.69940075    -0.93600
O371        O  0.93447408  0.93272573  0.76198378    -0.92000
O372        O  0.08899637  0.94024928  0.83197974    -0.92400
O373        O  0.08332436  0.00259861  0.77184162    -0.91200
C374        C  0.92393689  0.96041913  0.73489474     1.17900
H375        H  0.06172588  0.86635066  0.81240715     0.33800
H376        H  0.09441708  0.95975278  0.67530152     0.44700
H377        H  0.93811801  0.88430938  0.68901223     0.38200
H378        H  0.07397542  0.78960372  0.65590971     0.34700
H379        H  0.16889916  0.97867693  0.76143622     0.26500
H380        H  0.13451497  0.84997300  0.56489826     0.32400
H381        H  0.99217247  0.77390783  0.57974709     0.38300
H382        H  0.11731055  0.94933597  0.84075510     0.32800
H383        H  0.95197221  0.89311382  0.84779421     0.31700
H384        H  0.90124084  0.85519399  0.79280732     0.33400
H385        H  0.91283617  0.78946822  0.63188405     0.32300
H386        H  0.06926859  0.01362453  0.74650089     0.36300
H387        H  0.99593088  0.02165046  0.70222071     0.29100
H388        H  0.11352259  0.73106650  0.76868756     0.33300
H389        H  0.96500564  0.73629230  0.64767467     0.36100
H390        H  0.00071482  0.89705187  0.85154516     0.28700
H391        H  0.02911858  0.02647544  0.66714985     0.41600
H392        H  0.18962232  0.88948284  0.66936401     0.31700
H393        H  0.16971369  0.95725624  0.71733079     0.39300
H394        H  0.90454641  0.83519333  0.64681510     0.31100
H395        H  0.09641802  0.82065909  0.57474262     0.31200
H396        H  0.07839567  0.72222950  0.73526738     0.31500
Zr397      Zr  0.31118369  0.75617260  0.91789669     2.17500
O398        O  0.23659968  0.73946913  0.91643897    -0.50900
O399        O  0.32519543  0.71808564  0.85286701    -0.74100
O400        O  0.27298463  0.79760177  0.86760414    -0.80900
O401        O  0.31748084  0.68443995  0.01259319    -0.82600
O402        O  0.31159263  0.85509349  0.85032677    -0.78200
O403        O  0.28111317  0.69468398  0.95211117    -0.89900
O404        O  0.39542326  0.71691969  0.84132054    -0.75800
O405        O  0.36977412  0.78131005  0.87950690    -0.85300
O406        O  0.36962473  0.71700911  0.94247017    -0.85000
O407        O  0.31503498  0.82998572  0.93361481    -0.71800
O408        O  0.31532868  0.77123303  0.99146701    -0.83900
Zr409      Zr  0.43912779  0.83106779  0.99251124     2.26400
Zr410      Zr  0.37477286  0.85439920  0.89446463     2.06300
Zr411      Zr  0.37512845  0.73353586  0.01545423     2.10000
Zr412      Zr  0.42818705  0.74260816  0.90445589     1.78800
O413        O  0.34264886  0.73072779  0.08434775    -0.92700
O414        O  0.47457869  0.76410260  0.84781780    -0.40500
O415        O  0.43488561  0.75752164  0.97763051    -0.77200
O416        O  0.43468752  0.81553969  0.91882133    -0.95800
O417        O  0.38019776  0.86887481  0.96738154    -0.89200
O418        O  0.38060141  0.80639733  0.03150383    -0.92000
C419        C  0.35755165  0.71012473  0.83026731     1.01800
C420        C  0.28803454  0.67557987  0.98683435     1.14700
C421        C  0.27882550  0.83169859  0.84747222     1.05500
O422        O  0.39795868  0.85846133  0.82194138    -0.94100
O423        O  0.43810419  0.89841293  0.89353932    -0.89900
O424        O  0.47467480  0.88501291  0.95343957    -0.83000
C425        C  0.46964901  0.90346067  0.91826390     1.12100
O426        O  0.24866500  0.82730702  0.02048363    -0.96100
Zr427      Zr  0.32181909  0.84444607  0.00644493     1.88900
O428        O  0.42561824  0.89590008  0.03117063    -0.76400
O429        O  0.35017508  0.92651312  0.89585083    -0.52000
O430        O  0.27719054  0.90223115  0.98411431    -0.96700
O431        O  0.30987404  0.84401675  0.08199057    -0.53900
O432        O  0.35528878  0.90757909  0.03155653    -0.73300
C433        C  0.39315911  0.91859219  0.03864900     0.99100
O434        O  0.51546472  0.82667990  0.99875935    -0.62100
O435        O  0.40724785  0.66471914  0.02278220    -0.56900
O436        O  0.46629977  0.80008370  0.05704157    -0.93600
O437        O  0.43252922  0.73768964  0.06480035    -0.92000
O438        O  0.43868686  0.66715376  0.90800578    -0.92400
O439        O  0.50144692  0.72548858  0.91687477    -0.91200
C440        C  0.46037149  0.76465656  0.07521543     1.17900
H441        H  0.36549793  0.68741384  0.93785170     0.33800
H442        H  0.45990708  0.82406972  0.90456186     0.44700
H443        H  0.38463378  0.81077008  0.06112443     0.38200
H444        H  0.28982686  0.84453085  0.92560900     0.34700
H445        H  0.47944936  0.73830082  0.83133440     0.26500
H446        H  0.34763148  0.93451848  0.86601095     0.32400
H447        H  0.27290298  0.91932540  0.00961804     0.38300
H448        H  0.45077150  0.65960731  0.88046901     0.32800
H449        H  0.39168288  0.65111419  0.04588746     0.31700
H450        H  0.35210850  0.70378000  0.09640695     0.33400
H451        H  0.28997306  0.86724817  0.08701366     0.32300
H452        H  0.51298076  0.75044825  0.93118961     0.36300
H453        H  0.52169322  0.79661445  0.00311555     0.29100
H454        H  0.22990158  0.73280181  0.88690716     0.33300
H455        H  0.23656061  0.85192792  0.03489201     0.36100
H456        H  0.39876052  0.64908975  0.99740759     0.28700
H457        H  0.52686985  0.83213858  0.97046335     0.41600
H458        H  0.39249827  0.83025234  0.81030991     0.31700
H459        H  0.45691113  0.78180955  0.82950623     0.39300
H460        H  0.33631957  0.85397466  0.09471726     0.31100
H461        H  0.32092300  0.92461873  0.90595268     0.31200
H462        H  0.22192158  0.76615018  0.92229135     0.31500
Zr463      Zr  0.25632946  0.58130730  0.68834999     2.17500
O464        O  0.23970901  0.58346926  0.76294399    -0.50900
O465        O  0.21770638  0.64610943  0.67429197    -0.74100
O466        O  0.29718949  0.63205095  0.72646401    -0.80900
O467        O  0.18483251  0.48635382  0.68195638    -0.82600
O468        O  0.35515312  0.64879446  0.68835257    -0.78200
O469        O  0.19489505  0.54694118  0.71821882    -0.89900
O470        O  0.21700125  0.65789842  0.60412452    -0.75800
O471        O  0.28176640  0.61972458  0.62990227    -0.85300
O472        O  0.21729668  0.55671208  0.62989935    -0.85000
O473        O  0.33014916  0.56541535  0.68488423    -0.71800
O474        O  0.27144224  0.50764908  0.68408552    -0.83900
Zr475      Zr  0.33164374  0.50648529  0.56071382     2.26400
Zr476      Zr  0.35489824  0.60445540  0.62522232     2.06300
Zr477      Zr  0.23378255  0.48370469  0.62413146     2.10000
Zr478      Zr  0.24308185  0.59472680  0.57147364     1.78800
O479        O  0.22817199  0.41418066  0.65493828    -0.92700
O480        O  0.26488001  0.65112928  0.52493596    -0.40500
O481        O  0.25811472  0.52154948  0.56457050    -0.77200
O482        O  0.31599757  0.58011871  0.56535434    -0.95800
O483        O  0.36941458  0.53155174  0.61970868    -0.89200
O484        O  0.30671235  0.46751318  0.61918708    -0.92000
C485        C  0.20987818  0.66882867  0.64198351     1.01800
C486        C  0.17585704  0.51219016  0.71131559     1.14700
C487        C  0.33139206  0.65202978  0.72083344     1.05500
O488        O  0.36052084  0.67698663  0.60246712    -0.94100
O489        O  0.39831531  0.60560996  0.56135964    -0.89900
O490        O  0.38557613  0.54546327  0.52494734    -0.83000
C491        C  0.40355783  0.58092197  0.52979749     1.12100
O492        O  0.32878563  0.47866456  0.75144915    -0.96100
Zr493      Zr  0.34478845  0.49253173  0.67798224     1.88900
O494        O  0.39664960  0.46816853  0.57384507    -0.72800
O495        O  0.42689871  0.60189360  0.65013111    -0.52000
O496        O  0.40259786  0.51508620  0.72244505    -0.96700
O497        O  0.34425066  0.41704427  0.69036790    -0.53900
O498        O  0.40807007  0.46748390  0.64418158    -0.73300
C499        C  0.41932362  0.46070191  0.60628529     0.99100
O500        O  0.32716659  0.50092635  0.48438276    -0.62100
O501        O  0.16551999  0.47895971  0.59033397    -0.56900
O502        O  0.30135992  0.44148116  0.53390944    -0.93600
O503        O  0.23858545  0.43396962  0.56701849    -0.92000
O504        O  0.16775474  0.58939465  0.56061025    -0.92400
O505        O  0.22623329  0.58302685  0.49806094    -0.91200
C506        C  0.26589847  0.42329729  0.53959889     1.17900
H507        H  0.18770388  0.56138126  0.63402160     0.33800
H508        H  0.32450017  0.59436643  0.54013109     0.44700
H509        H  0.31106971  0.43787786  0.61524115     0.38200
H510        H  0.34449501  0.57353910  0.71016772     0.34700
H511        H  0.23944306  0.66839270  0.52089076     0.26500
H512        H  0.43585392  0.63155099  0.65120340     0.32400
H513        H  0.42029453  0.48986938  0.72595711     0.38300
H514        H  0.15934041  0.61726758  0.54996259     0.32800
H515        H  0.15228628  0.45383407  0.60276688     0.31700
H516        H  0.20182842  0.40254551  0.64344987     0.33400
H517        H  0.36784579  0.41201069  0.70983677     0.32300
H518        H  0.25157288  0.56957854  0.48629444     0.36300
H519        H  0.29733580  0.49511089  0.47821501     0.29100
H520        H  0.23243427  0.61294712  0.76926656     0.33300
H521        H  0.35332553  0.46372354  0.76308820     0.36100
H522        H  0.14916354  0.50273245  0.60162797     0.28700
H523        H  0.33110021  0.52965855  0.47343642     0.41600
H524        H  0.33267666  0.68927434  0.60838660     0.31700
H525        H  0.28359761  0.66876435  0.54224248     0.39300
H526        H  0.35367615  0.40415333  0.66381478     0.31100
H527        H  0.42462035  0.59334911  0.67984262     0.31200
H528        H  0.26647632  0.57830916  0.77773410     0.31500
Zr529      Zr  0.50585072  0.56138289  0.33188523     2.17500
O530        O  0.48688381  0.48742709  0.33541967    -0.50900
O531        O  0.46817827  0.57592591  0.39711681    -0.74100
O532        O  0.54736324  0.52222773  0.38140761    -0.80900
O533        O  0.43292626  0.56849239  0.23795471    -0.82600
O534        O  0.60515291  0.56039536  0.39858259    -0.78200
O535        O  0.44383274  0.53183435  0.29812322    -0.89900
O536        O  0.46754175  0.64610373  0.40871906    -0.75800
O537        O  0.53150101  0.61982839  0.37011479    -0.85300
O538        O  0.46691636  0.61987759  0.30710444    -0.85000
O539        O  0.57970531  0.56474472  0.31563305    -0.71800
O540        O  0.52095533  0.56511760  0.25820584    -0.83900
Zr541      Zr  0.58123457  0.68859442  0.25652494     2.26400
Zr542      Zr  0.60463076  0.62426324  0.35481337     2.06300
Zr543      Zr  0.48332957  0.62492992  0.23400868     2.10000
Zr544      Zr  0.49292257  0.67829537  0.34499493     1.78800
O545        O  0.48194055  0.59092508  0.16580253    -0.92700
O546        O  0.51528399  0.72548624  0.40061619    -0.40500
O547        O  0.50768399  0.68460507  0.27172245    -0.77200
O548        O  0.56584715  0.68413701  0.33021001    -0.95800
O549        O  0.61902778  0.62969273  0.28181255    -0.89200
O550        O  0.55612629  0.63024007  0.21761736    -0.92000
C551        C  0.46056250  0.60826382  0.41984068     1.01800
C552        C  0.42410554  0.53915326  0.26383828     1.14700
C553        C  0.58159787  0.52765738  0.40141521     1.05500
O554        O  0.60750782  0.64838467  0.42704586    -0.94100
O555        O  0.64846725  0.68796518  0.35519074    -0.89900
O556        O  0.63546050  0.72430659  0.29504587    -0.83000
C557        C  0.65366839  0.71947198  0.33038503     1.12100
O558        O  0.57665794  0.49892126  0.22687415    -0.96100
Zr559      Zr  0.59424702  0.57155657  0.24273177     1.88900
O560        O  0.64612464  0.67514541  0.21783530    -0.72800
O561        O  0.67715375  0.60067470  0.35501231    -0.52000
O562        O  0.65071044  0.52519023  0.26492303    -0.96700
O563        O  0.59463771  0.56150221  0.16689759    -0.53900
O564        O  0.65813607  0.60491498  0.21866966    -0.73300
C565        C  0.66912276  0.64273772  0.21109420     0.99100
O566        O  0.57707547  0.76496201  0.25109481    -0.62100
O567        O  0.41475852  0.65704117  0.22445749    -0.56900
O568        O  0.55016717  0.71568141  0.19200180    -0.93600
O569        O  0.48728011  0.68265814  0.18494800    -0.92000
O570        O  0.41743417  0.68880451  0.34148743    -0.92400
O571        O  0.47572685  0.75140524  0.33182685    -0.91200
C572        C  0.51446194  0.71019723  0.17423616     1.17900
H573        H  0.43729238  0.61596492  0.31178012     0.33800
H574        H  0.57451000  0.70937896  0.34431835     0.44700
H575        H  0.56032722  0.63429386  0.18797754     0.38200
H576        H  0.59413627  0.53944142  0.32351726     0.34700
H577        H  0.48978772  0.73042458  0.41755489     0.26500
H578        H  0.68398637  0.59643652  0.38495207     0.32400
H579        H  0.66907341  0.52251780  0.24008616     0.38300
H580        H  0.41017934  0.70273804  0.36821280     0.32800
H581        H  0.40082283  0.63988171  0.20272173     0.31700
H582        H  0.45654270  0.60210640  0.15197631     0.33400
H583        H  0.61756603  0.54130748  0.16167258     0.32300
H584        H  0.50192148  0.76371301  0.32069867     0.36300
H585        H  0.54723553  0.77129932  0.24551371     0.29100
H586        H  0.48066065  0.48156766  0.36523399     0.33300
H587        H  0.60101684  0.48716534  0.21173939     0.36100
H588        H  0.39923548  0.65075680  0.25053740     0.28700
H589        H  0.58126396  0.77588318  0.27979644     0.41600
H590        H  0.58208789  0.63661418  0.44033483     0.31700
H591        H  0.53345681  0.70812420  0.41876813     0.39300
H592        H  0.60527826  0.58803468  0.15492486     0.31100
H593        H  0.67611784  0.57207674  0.34309885     0.31200
H594        H  0.51289387  0.47170585  0.32925359     0.31500
Zr595      Zr  0.68624447  0.25505816  0.58271691     2.17500
O596        O  0.75984154  0.23489816  0.58716998    -0.50900
O597        O  0.67177789  0.21766333  0.64799062    -0.74100
O598        O  0.72549371  0.29731043  0.63175652    -0.80900
O599        O  0.67789279  0.18142854  0.48913976    -0.82600
O600        O  0.68810459  0.35597035  0.64766215    -0.78200
O601        O  0.71590971  0.19339281  0.54826573    -0.89900
O602        O  0.60176601  0.21879868  0.66060856    -0.75800
O603        O  0.62832777  0.28214111  0.62088248    -0.85300
O604        O  0.62700084  0.21637446  0.55936104    -0.85000
O605        O  0.68382996  0.32855198  0.56512140    -0.71800
O606        O  0.68172973  0.26858672  0.50878028    -0.83900
Zr607      Zr  0.55958086  0.33090483  0.50636306     2.26400
Zr608      Zr  0.62457576  0.35497043  0.60388620     2.06300
Zr609      Zr  0.62102529  0.23132840  0.48603997     2.10000
Zr610      Zr  0.56913083  0.24394060  0.59695255     1.78800
O611        O  0.65160387  0.22511807  0.41650881    -0.92700
O612        O  0.52331784  0.26807923  0.65297123    -0.40500
O613        O  0.56206386  0.25764528  0.52344061    -0.77200
O614        O  0.56413137  0.31651561  0.58033787    -0.95800
O615        O  0.61915408  0.36823270  0.53066774    -0.89200
O616        O  0.61739000  0.30385009  0.46799307    -0.92000
C617        C  0.63960272  0.21094106  0.67118785     1.01800
C618        C  0.70799015  0.17323639  0.51435099     1.14700
C619        C  0.72047216  0.33206063  0.65101196     1.05500
O620        O  0.60187699  0.36143865  0.67639544    -0.94100
O621        O  0.56114869  0.39908645  0.60442732    -0.89900
O622        O  0.52473165  0.38605143  0.54433839    -0.83000
C623        C  0.52967990  0.40435071  0.57960378     1.12100
O624        O  0.74741301  0.32107601  0.47126255    -0.96100
Zr625      Zr  0.67676893  0.34166988  0.49191270     1.88900
O626        O  0.57424365  0.39490590  0.46640922    -0.72800
O627        O  0.64950585  0.42688334  0.60036789    -0.52000
O628        O  0.72597180  0.39547811  0.51459709    -0.96700
O629        O  0.68615228  0.34371503  0.41600735    -0.53900
O630        O  0.64461139  0.40606304  0.46747042    -0.73300
C631        C  0.60697968  0.41739051  0.45939719     0.99100
O632        O  0.48315084  0.32818087  0.50089603    -0.62100
O633        O  0.58739277  0.16290455  0.48283387    -0.56900
O634        O  0.53233676  0.29952729  0.44196537    -0.93600
O635        O  0.56345151  0.23552958  0.43667967    -0.92000
O636        O  0.55687464  0.16867144  0.59453613    -0.92400
O637        O  0.49545118  0.22789412  0.58566903    -0.91200
C638        C  0.53692251  0.26331531  0.42496784     1.17900
H639        H  0.63068473  0.18683317  0.56466795     0.33800
H640        H  0.53903099  0.32565375  0.59440516     0.44700
H641        H  0.61346417  0.30742969  0.43825450     0.38200
H642        H  0.70934125  0.34272658  0.57276638     0.34700
H643        H  0.51806168  0.24292722  0.67032203     0.26500
H644        H  0.65275558  0.43551604  0.62996009     0.32400
H645        H  0.72737706  0.41544905  0.49093010     0.38300
H646        H  0.54565095  0.16161810  0.62256589     0.32800
H647        H  0.59863982  0.14980196  0.45709005     0.31700
H648        H  0.64114433  0.19801868  0.40568940     0.33400
H649        H  0.70482735  0.36795110  0.41098408     0.32300
H650        H  0.48408660  0.25301084  0.57147900     0.36300
H651        H  0.47626374  0.29852728  0.49503270     0.29100
H652        H  0.76519616  0.22883653  0.61710997     0.33300
H653        H  0.76075256  0.34645186  0.45947097     0.36100
H654        H  0.59993779  0.14654370  0.50597718     0.28700
H655        H  0.47234684  0.33228353  0.52965860     0.41600
H656        H  0.61032356  0.33476205  0.68974552     0.31700
H657        H  0.54136779  0.28607444  0.67061181     0.39300
H658        H  0.65891179  0.35273309  0.40429337     0.31100
H659        H  0.67851157  0.42458835  0.58965798     0.31200
H660        H  0.77604673  0.26061050  0.58103088     0.31500
Zr661      Zr  0.66748744  0.00599441  0.93872315     2.17500
O662        O  0.66515837  0.98846662  0.01309120    -0.50900
O663        O  0.60252310  0.96766227  0.92438472    -0.74100
O664        O  0.61691923  0.04705439  0.97682687    -0.80900
O665        O  0.76219277  0.93421752  0.93223572    -0.82600
O666        O  0.59980571  0.10468031  0.93836431    -0.78200
O667        O  0.70159953  0.94441240  0.96846131    -0.89900
O668        O  0.59010152  0.96880573  0.85434018    -0.75800
O669        O  0.62918743  0.03152643  0.88029153    -0.85300
O670        O  0.69234240  0.96700669  0.88038546    -0.85000
O671        O  0.68350976  0.07979992  0.93538932    -0.71800
O672        O  0.74110945  0.02131817  0.93464201    -0.83900
Zr673      Zr  0.74239087  0.08113195  0.81103348     2.26400
Zr674      Zr  0.64456125  0.10457031  0.87567999     2.06300
Zr675      Zr  0.76533936  0.98357270  0.87492283     2.10000
Zr676      Zr  0.65421556  0.99269522  0.82201997     1.78800
O677        O  0.83401354  0.98093374  0.90792263    -0.92700
O678        O  0.59977154  0.01446804  0.77318971    -0.40500
O679        O  0.72742593  0.00759675  0.81533189    -0.77200
O680        O  0.66872921  0.06560306  0.81583039    -0.95800
O681        O  0.71744433  0.11918706  0.86992491    -0.89200
O682        O  0.78144117  0.05640859  0.86952906    -0.92000
C683        C  0.57937301  0.96100536  0.89211018     1.01800
C684        C  0.73626542  0.92526048  0.96149122     1.14700
C685        C  0.59677413  0.08112696  0.97098278     1.05500
O686        O  0.57192242  0.11135090  0.85353705    -0.94100
O687        O  0.64311525  0.14763571  0.81179953    -0.89900
O688        O  0.70354605  0.13548779  0.77562787    -0.83000
C689        C  0.66792003  0.15320898  0.78042424     1.12100
O690        O  0.77318661  0.07830698  0.00104255    -0.96100
Zr691      Zr  0.75639553  0.09461182  0.92825884     1.88900
O692        O  0.78204683  0.14539136  0.82398579    -0.72800
O693        O  0.64795696  0.17658375  0.90039432    -0.52000
O694        O  0.73237712  0.15139985  0.97329611    -0.96700
O695        O  0.83200331  0.09521806  0.94003573    -0.53900
O696        O  0.78138783  0.15777327  0.89416970    -0.73300
C697        C  0.78911704  0.16841657  0.85627062     0.99100
O698        O  0.74663554  0.07661132  0.73462906    -0.62100
O699        O  0.77255227  0.91466190  0.84294237    -0.56900
O700        O  0.80675563  0.05009531  0.78350708    -0.93600
O701        O  0.81427741  0.98752615  0.81701175    -0.92000
O702        O  0.65526025  0.91686127  0.81386567    -0.92400
O703        O  0.66895131  0.97356411  0.74974572    -0.91200
C704        C  0.82473962  0.01453135  0.78919348     1.17900
H705        H  0.68776667  0.93740672  0.88450960     0.33800
H706        H  0.65450971  0.07411599  0.79059954     0.44700
H707        H  0.81107214  0.06072084  0.86544466     0.38200
H708        H  0.67531638  0.09411297  0.96066342     0.34700
H709        H  0.58270556  0.98901249  0.76851298     0.26500
H710        H  0.61882193  0.18695641  0.89818006     0.32400
H711        H  0.75675319  0.17037990  0.97588084     0.38300
H712        H  0.62780331  0.90991811  0.80124432     0.32800
H713        H  0.79601456  0.90125388  0.85814351     0.31700
H714        H  0.84702009  0.95501982  0.89695865     0.33400
H715        H  0.83692624  0.11929869  0.95892188     0.32300
H716        H  0.68273250  0.99858861  0.73769952     0.36300
H717        H  0.75260289  0.04683743  0.72836647     0.29100
H718        H  0.63560448  0.98133877  0.01924614     0.33300
H719        H  0.78556608  0.10402592  0.01312222     0.36100
H720        H  0.74742165  0.89888869  0.85191145     0.28700
H721        H  0.71765134  0.08027284  0.72424721     0.41600
H722        H  0.56027703  0.08272142  0.85591962     0.31700
H723        H  0.58142726  0.03319508  0.78973629     0.39300
H724        H  0.84463704  0.10414165  0.91318409     0.31100
H725        H  0.65310925  0.17422567  0.93086892     0.31200
H726        H  0.67043561  0.01503563  0.02817300     0.31500
Zr727      Zr  0.93606296  0.66594282  0.00488685     2.17500
O728        O  0.00910681  0.65974936  0.98318304    -0.50900
O729        O  0.92057512  0.60133524  0.96670548    -0.74100
O730        O  0.97526375  0.61661011  0.04673380    -0.80900
O731        O  0.92908595  0.76065526  0.93247449    -0.82600
O732        O  0.93770356  0.60037687  0.10519717    -0.78200
O733        O  0.96608945  0.70075985  0.94365328    -0.89900
O734        O  0.85047807  0.58932957  0.96794215    -0.75800
O735        O  0.87774642  0.62814665  0.03165438    -0.85300
O736        O  0.87720179  0.69066082  0.96658960    -0.85000
O737        O  0.93388803  0.68301639  0.07855038    -0.71800
O738        O  0.93276049  0.73972670  0.01960379    -0.83900
Zr739      Zr  0.81001012  0.74266304  0.08139466     2.26400
Zr740      Zr  0.87432480  0.64456522  0.10468838     2.06300
Zr741      Zr  0.87252073  0.76383661  0.98258711     2.10000
Zr742      Zr  0.81890358  0.65329153  0.99358466     1.78800
O743        O  0.90595262  0.83221564  0.97867918    -0.92700
O744        O  0.77120707  0.59851478  0.01700931    -0.40500
O745        O  0.81289939  0.72673549  0.00794888    -0.77200
O746        O  0.81401217  0.66884441  0.06638752    -0.95800
O747        O  0.86928932  0.71763626  0.11864748    -0.89200
O748        O  0.86832779  0.78092391  0.05523798    -0.92000
C749        C  0.88818826  0.57848428  0.95984112     1.01800
C750        C  0.95871324  0.73503664  0.92393580     1.14700
C751        C  0.97012934  0.59710192  0.08131544     1.05500
O752        O  0.85132710  0.57226152  0.11188660    -0.94100
O753        O  0.81080348  0.64394994  0.14875079    -0.89900
O754        O  0.77468138  0.70428250  0.13598776    -0.83000
C755        C  0.77943914  0.66890138  0.15413704     1.12100
O756        O  0.99874254  0.77572491  0.07362066    -0.96100
Zr757      Zr  0.92740417  0.75607694  0.09282546     1.88900
O758        O  0.82446941  0.78179896  0.14581184    -0.72800
O759        O  0.89937311  0.64868165  0.17653316    -0.52000
O760        O  0.97514222  0.73219445  0.14742922    -0.96700
O761        O  0.93746043  0.83193171  0.09427291    -0.53900
O762        O  0.89482103  0.78044854  0.15714556    -0.73300
C763        C  0.85715030  0.78851503  0.16843814     0.99100
O764        O  0.73367275  0.74914233  0.07793979    -0.62100
O765        O  0.83899241  0.77027480  0.91436066    -0.56900
O766        O  0.78360733  0.80755058  0.05068828    -0.93600
O767        O  0.81611935  0.81422902  0.98749647    -0.92000
O768        O  0.80791838  0.65581610  0.91816794    -0.92400
O769        O  0.74597273  0.66691141  0.97592795    -0.91200
C770        C  0.78919816  0.82542515  0.01507906     1.17900
H771        H  0.88083393  0.68579801  0.93696908     0.33800
H772        H  0.78881384  0.65485409  0.07536764     0.44700
H773        H  0.86464081  0.81064119  0.05921944     0.38200
H774        H  0.95935704  0.67509960  0.09265321     0.34700
H775        H  0.76574720  0.58143631  0.99172115     0.26500
H776        H  0.90085434  0.61920174  0.18599850     0.32400
H777        H  0.97675136  0.75578058  0.16747182     0.38300
H778        H  0.79381213  0.62905697  0.91137389     0.32800
H779        H  0.85200341  0.79530481  0.90150032     0.31700
H780        H  0.89515187  0.84478110  0.95248028     0.33400
H781        H  0.95726579  0.83690811  0.11759654     0.32300
H782        H  0.73477478  0.68244597  0.00030428     0.36300
H783        H  0.72713740  0.75463444  0.04813065     0.29100
H784        H  0.01370360  0.62965258  0.97727208     0.33300
H785        H  0.01200942  0.78661704  0.09942711     0.36100
H786        H  0.84982003  0.74646646  0.89773501     0.28700
H787        H  0.72241644  0.72061411  0.08243345     0.41600
H788        H  0.85473117  0.56007578  0.08359144     0.31700
H789        H  0.78852948  0.58027057  0.03512350     0.39300
H790        H  0.91074532  0.84383131  0.10453915     0.31100
H791        H  0.92896471  0.65758117  0.17402272     0.31200
H792        H  0.02602244  0.66577075  0.00845815     0.31500
C793        C  0.74771082  0.89080115  0.98790789    -0.12800
C794        C  0.76389282  0.86092206  0.00433390    -0.14400
C795        C  0.64653857  0.19413028  0.71234656    -0.12800
C796        C  0.65420708  0.17830921  0.74579040    -0.14400
C797        C  0.60117963  0.45867798  0.44210341    -0.12800
C798        C  0.59482763  0.49246496  0.42622590    -0.14400
C799        C  0.71063925  0.64914220  0.19472907    -0.12800
C800        C  0.74455253  0.65576951  0.17931534    -0.14400
C801        C  0.49482993  0.42943390  0.59288591    -0.12800
C802        C  0.46087010  0.44456896  0.59978227    -0.14400
C803        C  0.42848098  0.59448741  0.49492617    -0.12800
C804        C  0.44395954  0.60162947  0.46117602    -0.14400
C805        C  0.48645886  0.75327559  0.11004514    -0.12800
C806        C  0.50307994  0.73645048  0.13952302    -0.14400
C807        C  0.50428914  0.92883887  0.90517586    -0.12800
C808        C  0.53803654  0.94449707  0.89860738    -0.14400
C809        C  0.35104728  0.69319114  0.78914687    -0.12800
C810        C  0.34445906  0.67728099  0.75554571    -0.14400
C811        C  0.00191155  0.76307357  0.85987913    -0.12800
C812        C  0.98520880  0.74652356  0.88945668    -0.14400
C813        C  0.88901014  0.98648448  0.74617877    -0.12800
C814        C  0.85945411  0.00311444  0.76290258    -0.14400
C815        C  0.17698721  0.74362061  0.65539059    -0.12800
C816        C  0.19277391  0.70995321  0.64858491    -0.14400
C817        C  0.21037030  0.85206577  0.80691612    -0.12800
C818        C  0.24403471  0.84517181  0.82256349    -0.14400
C819        C  0.69451299  0.78808148  0.35046064    -0.12800
C820        C  0.67886508  0.75431579  0.34363548    -0.14400
C821        C  0.84439897  0.82113568  0.24366152    -0.12800
C822        C  0.85115630  0.80545940  0.20985191    -0.14400
C823        C  0.94271184  0.89888142  0.53971814    -0.12800
C824        C  0.92677131  0.90515969  0.50594747    -0.14400
C825        C  0.75116363  0.10912381  0.48611529    -0.12800
C826        C  0.73444081  0.13868941  0.50274257    -0.14400
C827        C  0.14150498  0.50057235  0.73794817    -0.12800
C828        C  0.11172059  0.48439147  0.75466598    -0.14400
C829        C  0.80603613  0.20961478  0.84956676    -0.12800
C830        C  0.82167531  0.24332424  0.84258837    -0.14400
C831        C  0.89481600  0.53733986  0.94280003    -0.12800
C832        C  0.90264427  0.50381177  0.92719151    -0.14400
C833        C  0.75570472  0.34557780  0.67545573    -0.12800
C834        C  0.78940402  0.35247755  0.69116076    -0.14400
C835        C  0.06998826  0.40584638  0.99469369    -0.12800
C836        C  0.05427952  0.39884961  0.96097077    -0.14400
C837        C  0.03909158  0.55674613  0.10134522    -0.12800
C838        C  0.00534648  0.57249320  0.09466365    -0.14400
C839        C  0.38922940  0.51299241  0.25269562    -0.12800
C840        C  0.35934666  0.49657212  0.23638512    -0.14400
C841        C  0.24458709  0.61170302  0.01502616    -0.12800
C842        C  0.26130386  0.64135733  0.99860982    -0.14400
C843        C  0.25491733  0.38815901  0.51373358    -0.12800
C844        C  0.23833813  0.35853920  0.49710746    -0.14400
C845        C  0.99841499  0.26240114  0.63973865    -0.12800
C846        C  0.01477313  0.24596692  0.60993258    -0.14400
C847        C  0.99315235  0.07385814  0.40284999    -0.12800
C848        C  0.95957454  0.05789920  0.39613662    -0.14400
C849        C  0.14796546  0.30744397  0.28978451    -0.12800
C850        C  0.15409237  0.32275601  0.25578725    -0.14400
C851        C  0.09463122  0.00423755  0.57093496    -0.12800
C852        C  0.10190360  0.03783341  0.55516066    -0.14400
C853        C  0.40570977  0.99363765  0.07101107    -0.12800
C854        C  0.39946618  0.95984505  0.05536045    -0.14400
C855        C  0.28748754  0.14907197  0.30357993    -0.12800
C856        C  0.25366762  0.15606476  0.31889260    -0.14400
C857        C  0.31968915  0.25380196  0.15351960    -0.12800
C858        C  0.30393815  0.28746198  0.14653734    -0.14400
C859        C  0.55609170  0.10140516  0.03928818    -0.12800
C860        C  0.57171303  0.09446093  0.00565766    -0.14400
C861        C  0.51098053  0.25212999  0.38985654    -0.12800
C862        C  0.49439358  0.23574976  0.36005400    -0.14400
C863        C  0.63658615  0.99408601  0.26519085    -0.12800
C864        C  0.60682233  0.01089971  0.24903034    -0.14400
loop_ 
_geom_bond_atom_site_label_1 
_geom_bond_atom_site_label_2 
_geom_bond_distance 
_geom_bond_site_symmetry_2 
_ccdc_geom_bond_type 
Zr1           O2   2.442   1_545  S
Zr1           O3   2.447       .  S
Zr1           O4   2.408       .  S
Zr1           O7   2.443       .  S
Zr1           O9   2.376       .  S
Zr1          O10   2.377       .  S
Zr1          O11   2.414       .  S
Zr1          O12   2.402       .  S
O2           H58   0.991       .  S
O2           H66   0.990       .  S
O3           C23   1.285       .  A
O4           C25   1.277       .  A
O5          Zr15   2.422       .  S
O5           C24   1.282       .  A
O6          Zr14   2.467       .  S
O6           C25   1.290       .  A
O7           C24   1.285       .  A
O8          Zr16   2.416       .  S
O8           C23   1.279       .  A
O9          Zr14   2.387       .  S
O9          Zr16   2.375       .  S
O10         Zr15   2.395       .  S
O10         Zr16   2.375       .  S
O10          H45   0.966       .  S
O11         Zr14   2.410       .  S
O11         Zr31   2.382       .  S
O11          H48   0.964       .  S
O12         Zr15   2.385       .  S
O12         Zr31   2.398       .  S
Zr13         O38   2.450       .  S
Zr13         O32   2.445       .  S
Zr13         O40   2.451       .  S
Zr13         O28   2.415       .  S
Zr13         O19   2.399       .  S
Zr13         O20   2.408       .  S
Zr13         O21   2.378       .  S
Zr13         O22   2.381       .  S
Zr14         O33   2.434       .  S
Zr14         O26   2.435       .  S
Zr14         O27   2.464       .  S
Zr14         O20   2.409       .  S
Zr14         O21   2.383       .  S
Zr15         O17   2.435       .  S
Zr15         O39   2.437       .  S
Zr15         O41   2.420       .  S
Zr15         O19   2.386       .  S
Zr15         O22   2.393       .  S
Zr16         O42   2.436       .  S
Zr16         O43   2.435       .  S
Zr16         O18   2.437       .  S
Zr16         O19   2.395       .  S
Zr16         O20   2.381       .  S
O17          H54   0.990       .  S
O18          H49   0.990       .  S
O18          H63   0.990       .  S
O20          H46   0.964       .  S
O21         Zr31   2.374       .  S
O22         Zr31   2.377       .  S
O22          H47   0.965       .  S
C23         C859   1.434       .  S
C24         C864   1.438       .  S
C25         C853   1.433   1_545  S
O26          H62   0.990       .  S
O27          C29   1.290       .  A
O28          C29   1.280       .  A
C29         C857   1.436       .  S
O30         Zr31   2.441   1_565  S
O30          H59   0.990       .  S
Zr31         O34   2.438       .  S
Zr31         O35   2.443       .  S
Zr31         O36   2.424       .  S
O32          C37   1.286       .  A
O33          H50   0.990       .  S
O33          H65   0.990       .  S
O34          H51   0.990       .  S
O35          H55   0.990       .  S
O35          H64   0.990       .  S
O36          C37   1.281       .  A
C37         C855   1.437       .  S
O38          H57   0.990       .  S
O38          H61   0.990       .  S
O39          H53   0.990       .  S
O39          H60   0.990       .  S
O40          C44   1.287       .  A
O41          C44   1.282       .  A
O42          H52   0.990       .  S
O43          H56   0.990       .  S
C44         C862   1.439       .  S
Zr67         O68   2.441   1_455  S
Zr67         O69   2.447       .  S
Zr67         O70   2.414       .  S
Zr67         O73   2.443       .  S
Zr67         O75   2.377       .  S
Zr67         O76   2.380       .  S
Zr67         O77   2.415       .  S
Zr67         O78   2.404       .  S
O68         H124   0.991       .  S
O68         H132   0.990       .  S
O69          C89   1.285       .  A
O70          C91   1.279       .  A
O71         Zr81   2.418       .  S
O71          C90   1.281       .  A
O72         Zr80   2.463       .  S
O72          C91   1.289       .  A
O73          C90   1.285       .  A
O74         Zr82   2.423       .  S
O74          C89   1.280       .  A
O75         Zr80   2.390       .  S
O75         Zr82   2.374       .  S
O76         Zr81   2.399       .  S
O76         Zr82   2.374       .  S
O76         H111   0.966       .  S
O77         Zr80   2.410       .  S
O77         Zr97   2.382       .  S
O77         H114   0.964       .  S
O78         Zr81   2.386       .  S
O78         Zr97   2.399       .  S
Zr79        O104   2.451       .  S
Zr79         O98   2.449       .  S
Zr79        O106   2.447       .  S
Zr79         O94   2.412       .  S
Zr79         O85   2.401       .  S
Zr79         O86   2.409       .  S
Zr79         O87   2.377       .  S
Zr79         O88   2.379       .  S
Zr80         O99   2.434       .  S
Zr80         O92   2.435       .  S
Zr80         O93   2.463       .  S
Zr80         O86   2.408       .  S
Zr80         O87   2.382       .  S
Zr81         O83   2.435       .  S
Zr81        O105   2.437       .  S
Zr81        O107   2.421       .  S
Zr81         O85   2.385       .  S
Zr81         O88   2.389       .  S
Zr82        O108   2.436       .  S
Zr82        O109   2.435       .  S
Zr82         O84   2.437       .  S
Zr82         O85   2.398       .  S
Zr82         O86   2.381       .  S
O83         H120   0.990       .  S
O84         H115   0.990       .  S
O84         H129   0.990       .  S
O86         H112   0.964       .  S
O87         Zr97   2.375       .  S
O88         Zr97   2.376       .  S
O88         H113   0.965       .  S
C89         C852   1.439       .  S
C90         C846   1.435       .  S
C91         C847   1.434   1_455  S
O92         H128   0.990       .  S
O93          C95   1.290       .  A
O94          C95   1.279       .  A
C95         C856   1.434       .  S
O96         Zr97   2.441   1_655  S
O96         H125   0.990       .  S
Zr97        O100   2.438       .  S
Zr97        O101   2.443       .  S
Zr97        O102   2.422       .  S
O98         C103   1.287       .  A
O99         H116   0.990       .  S
O99         H131   0.990       .  S
O100        H117   0.990       .  S
O101        H121   0.990       .  S
O101        H130   0.990       .  S
O102        C103   1.280       .  A
C103        C849   1.437       .  S
O104        H123   0.990       .  S
O104        H127   0.990       .  S
O105        H119   0.990       .  S
O105        H126   0.990       .  S
O106        C110   1.286       .  A
O107        C110   1.282       .  A
O108        H118   0.990       .  S
O109        H122   0.990       .  S
C110        C844   1.437       .  S
Zr133       O134   2.442       .  S
Zr133       O135   2.451       .  S
Zr133       O136   2.410       .  S
Zr133       O139   2.445       .  S
Zr133       O141   2.377       .  S
Zr133       O142   2.378       .  S
Zr133       O143   2.418       .  S
Zr133       O144   2.406       .  S
O134        H190   0.991       .  S
O134        H198   0.990       .  S
O135        C155   1.286       .  A
O136        C157   1.278       .  A
O137       Zr147   2.418       .  S
O137        C156   1.281       .  A
O138       Zr146   2.467       .  S
O138        C157   1.290       .  A
O139        C156   1.285       .  A
O140       Zr148   2.421       .  S
O140        C155   1.279       .  A
O141       Zr146   2.390       .  S
O141       Zr148   2.375       .  S
O142       Zr147   2.397       .  S
O142       Zr148   2.374       .  S
O142        H177   0.966       .  S
O143       Zr146   2.413       .  S
O143       Zr163   2.383       .  S
O143        H180   0.964       .  S
O144       Zr147   2.387       .  S
O144       Zr163   2.402       .  S
Zr145       O170   2.449   1_554  S
Zr145       O164   2.449       .  S
Zr145       O172   2.446       .  S
Zr145       O160   2.416       .  S
Zr145       O151   2.402       .  S
Zr145       O152   2.411       .  S
Zr145       O153   2.377       .  S
Zr145       O154   2.381       .  S
Zr146       O165   2.434       .  S
Zr146       O158   2.434       .  S
Zr146       O159   2.468       .  S
Zr146       O152   2.410       .  S
Zr146       O153   2.383       .  S
Zr147       O149   2.435       .  S
Zr147       O171   2.438       .  S
Zr147       O173   2.421       .  S
Zr147       O151   2.384       .  S
Zr147       O154   2.390       .  S
Zr148       O174   2.437       .  S
Zr148       O175   2.435   1_554  S
Zr148       O150   2.437       .  S
Zr148       O151   2.398       .  S
Zr148       O152   2.385       .  S
O149        H186   0.990       .  S
O150        H181   0.990       .  S
O150        H195   0.990       .  S
O152        H178   0.964       .  S
O153       Zr163   2.375       .  S
O154       Zr163   2.374       .  S
O154        H179   0.965       .  S
C155        C858   1.439       .  S
C156        C840   1.437       .  S
C157        C850   1.434       .  S
O158        H194   0.990       .  S
O159        C161   1.291       .  A
O160        C161   1.280       .  A
C161        C835   1.438   1_554  S
O162       Zr163   2.441       .  S
O162        H191   0.990       .  S
Zr163       O166   2.439       .  S
Zr163       O167   2.443       .  S
Zr163       O168   2.427       .  S
O164        C169   1.287       .  A
O165        H182   0.990       .  S
O165        H197   0.990       .  S
O166        H183   0.990       .  S
O167        H187   0.990       .  S
O167        H196   0.990       .  S
O168        C169   1.281       .  A
C169        C837   1.439       .  S
O170        H189   0.990       .  S
O170        H193   0.990       .  S
O171        H185   0.990       .  S
O171        H192   0.990       .  S
O172        C176   1.286       .  A
O173        C176   1.282       .  A
O174        H184   0.990       .  S
O175        H188   0.990       .  S
C176        C841   1.437       .  S
Zr199       O200   2.441       .  S
Zr199       O201   2.452       .  S
Zr199       O202   2.412       .  S
Zr199       O205   2.442       .  S
Zr199       O207   2.375       .  S
Zr199       O208   2.378       .  S
Zr199       O209   2.416       .  S
Zr199       O210   2.406       .  S
O200        H256   0.991       .  S
O200        H264   0.990       .  S
O201        C221   1.286       .  A
O202        C223   1.278       .  A
O203       Zr213   2.420       .  S
O203        C222   1.281   1_455  A
O204       Zr212   2.467       .  S
O204        C223   1.290       .  A
O205        C222   1.284       .  A
O206       Zr214   2.420       .  S
O206        C221   1.279       .  A
O207       Zr212   2.389       .  S
O207       Zr214   2.376       .  S
O208       Zr213   2.397   1_655  S
O208       Zr214   2.373       .  S
O208        H243   0.966       .  S
O209       Zr212   2.410       .  S
O209       Zr229   2.387   1_655  S
O209        H246   0.964       .  S
O210       Zr213   2.384   1_655  S
O210       Zr229   2.402   1_655  S
Zr211       O236   2.450       .  S
Zr211       O230   2.449   1_655  S
Zr211       O238   2.450   1_655  S
Zr211       O226   2.419       .  S
Zr211       O217   2.403       .  S
Zr211       O218   2.409       .  S
Zr211       O219   2.378       .  S
Zr211       O220   2.380   1_655  S
Zr212       O231   2.434       .  S
Zr212       O224   2.435       .  S
Zr212       O225   2.461       .  S
Zr212       O218   2.411       .  S
Zr212       O219   2.384       .  S
Zr213       O215   2.435       .  S
Zr213       O237   2.437       .  S
Zr213       O239   2.418       .  S
Zr213       O217   2.385   1_455  S
Zr213       O220   2.390       .  S
Zr214       O240   2.436       .  S
Zr214       O241   2.434       .  S
Zr214       O216   2.436       .  S
Zr214       O217   2.397       .  S
Zr214       O218   2.383       .  S
O215        H252   0.990       .  S
O216        H247   0.990       .  S
O216        H261   0.990       .  S
O218        H244   0.964       .  S
O219       Zr229   2.374   1_655  S
O220       Zr229   2.373       .  S
O220        H245   0.965       .  S
C221        C834   1.439       .  S
C222        C845   1.436       .  S
C223        C830   1.436       .  S
O224        H260   0.990       .  S
O225        C227   1.290       .  A
O226        C227   1.280       .  A
C227        C832   1.436       .  S
O228       Zr229   2.441       .  S
O228        H257   0.990       .  S
Zr229       O232   2.439   1_455  S
Zr229       O233   2.444       .  S
Zr229       O234   2.431       .  S
O230        C235   1.287       .  A
O231        H248   0.990       .  S
O231        H263   0.990       .  S
O232        H249   0.990   1_655  S
O233        H253   0.990       .  S
O233        H262   0.990       .  S
O234        C235   1.282       .  A
C235        C836   1.441       .  S
O236        H255   0.990   1_655  S
O236        H259   0.990       .  S
O237        H251   0.990       .  S
O237        H258   0.990       .  S
O238        C242   1.286       .  A
O239        C242   1.281       .  A
O240        H250   0.990       .  S
O241        H254   0.990       .  S
C242        C828   1.437       .  S
Zr265       O266   2.441   1_565  S
Zr265       O267   2.448   1_565  S
Zr265       O268   2.414       .  S
Zr265       O271   2.447   1_565  S
Zr265       O273   2.379       .  S
Zr265       O274   2.379   1_565  S
Zr265       O275   2.418       .  S
Zr265       O276   2.404       .  S
O266        H322   0.991       .  S
O266        H330   0.990   1_545  S
O267        C287   1.285       .  A
O268        C289   1.278       .  A
O269       Zr279   2.418       .  S
O269        C288   1.281       .  A
O270       Zr278   2.474       .  S
O270        C289   1.292       .  A
O271        C288   1.285       .  A
O272       Zr280   2.417       .  S
O272        C287   1.278       .  A
O273       Zr278   2.392       .  S
O273       Zr280   2.377   1_565  S
O274       Zr279   2.397       .  S
O274       Zr280   2.375       .  S
O274        H309   0.966       .  S
O275       Zr278   2.413       .  S
O275       Zr295   2.384       .  S
O275        H312   0.964       .  S
O276       Zr279   2.386   1_565  S
O276       Zr295   2.402       .  S
Zr277       O302   2.449       .  S
Zr277       O296   2.450       .  S
Zr277       O304   2.451       .  S
Zr277       O292   2.416       .  S
Zr277       O283   2.403       .  S
Zr277       O284   2.410       .  S
Zr277       O285   2.378       .  S
Zr277       O286   2.380       .  S
Zr278       O297   2.434       .  S
Zr278       O290   2.434       .  S
Zr278       O291   2.473       .  S
Zr278       O284   2.410       .  S
Zr278       O285   2.384       .  S
Zr279       O281   2.435       .  S
Zr279       O303   2.437       .  S
Zr279       O305   2.419       .  S
Zr279       O283   2.386   1_545  S
Zr279       O286   2.391   1_545  S
Zr280       O306   2.436       .  S
Zr280       O307   2.435       .  S
Zr280       O282   2.438   1_545  S
Zr280       O283   2.398   1_545  S
Zr280       O284   2.379   1_545  S
O281        H318   0.990       .  S
O282        H313   0.990   1_565  S
O282        H327   0.990       .  S
O284        H310   0.964       .  S
O285       Zr295   2.374       .  S
O286       Zr295   2.374       .  S
O286        H311   0.965       .  S
C287        C848   1.437       .  S
C288        C825   1.438       .  S
C289        C824   1.439       .  S
O290        H326   0.990       .  S
O291        C293   1.292       .  A
O292        C293   1.280       .  A
C293        C821   1.440       .  S
O294       Zr295   2.441       .  S
O294        H323   0.990       .  S
Zr295       O298   2.439       .  S
Zr295       O299   2.443       .  S
Zr295       O300   2.429       .  S
O296        C301   1.287       .  A
O297        H314   0.990       .  S
O297        H329   0.990       .  S
O298        H315   0.990       .  S
O299        H319   0.990       .  S
O299        H328   0.990       .  S
O300        C301   1.282       .  A
C301        C819   1.440       .  S
O302        H321   0.990       .  S
O302        H325   0.990       .  S
O303        H317   0.990       .  S
O303        H324   0.990       .  S
O304        C308   1.286       .  A
O305        C308   1.281   1_545  A
O306        H316   0.990       .  S
O307        H320   0.990   1_545  S
C308        C863   1.437       .  S
Zr331       O332   2.441       .  S
Zr331       O333   2.447       .  S
Zr331       O334   2.413       .  S
Zr331       O337   2.443       .  S
Zr331       O339   2.377       .  S
Zr331       O340   2.379       .  S
Zr331       O341   2.414       .  S
Zr331       O342   2.403       .  S
O332        H388   0.991       .  S
O332        H396   0.990       .  S
O333        C353   1.285       .  A
O334        C355   1.278       .  A
O335       Zr345   2.419       .  S
O335        C354   1.281   1_655  A
O336       Zr344   2.467       .  S
O336        C355   1.290       .  A
O337        C354   1.285       .  A
O338       Zr346   2.418       .  S
O338        C353   1.279       .  A
O339       Zr344   2.389       .  S
O339       Zr346   2.376       .  S
O340       Zr345   2.397   1_455  S
O340       Zr346   2.373       .  S
O340        H375   0.966       .  S
O341       Zr344   2.410       .  S
O341       Zr361   2.383   1_455  S
O341        H378   0.964       .  S
O342       Zr345   2.384   1_455  S
O342       Zr361   2.399   1_455  S
Zr343       O368   2.449   1_565  S
Zr343       O362   2.452   1_455  S
Zr343       O370   2.448   1_455  S
Zr343       O358   2.415       .  S
Zr343       O349   2.402       .  S
Zr343       O350   2.410       .  S
Zr343       O351   2.377       .  S
Zr343       O352   2.381   1_455  S
Zr344       O363   2.434       .  S
Zr344       O356   2.434       .  S
Zr344       O357   2.465       .  S
Zr344       O350   2.409       .  S
Zr344       O351   2.384       .  S
Zr345       O347   2.434       .  S
Zr345       O369   2.437       .  S
Zr345       O371   2.423       .  S
Zr345       O349   2.385   1_655  S
Zr345       O352   2.391       .  S
Zr346       O372   2.436       .  S
Zr346       O373   2.435   1_565  S
Zr346       O348   2.437       .  S
Zr346       O349   2.396       .  S
Zr346       O350   2.383       .  S
O347        H384   0.990       .  S
O348        H379   0.990       .  S
O348        H393   0.990       .  S
O350        H376   0.964       .  S
O351       Zr361   2.374   1_455  S
O352       Zr361   2.376       .  S
O352        H377   0.965       .  S
C353        C817   1.435       .  S
C354        C811   1.436       .  S
C355        C815   1.435       .  S
O356        H392   0.990       .  S
O357        C359   1.291       .  A
O358        C359   1.280       .  A
C359        C851   1.436   1_565  S
O360       Zr361   2.441       .  S
O360        H389   0.990       .  S
Zr361       O364   2.438   1_655  S
Zr361       O365   2.443       .  S
Zr361       O366   2.427       .  S
O362        C367   1.288       .  A
O363        H380   0.990       .  S
O363        H395   0.990       .  S
O364        H381   0.990   1_455  S
O365        H385   0.990       .  S
O365        H394   0.990       .  S
O366        C367   1.281       .  A
C367        C823   1.442       .  S
O368        H387   0.990   1_455  S
O368        H391   0.990       .  S
O369        H383   0.990       .  S
O369        H390   0.990   1_655  S
O370        C374   1.286       .  A
O371        C374   1.282       .  A
O372        H382   0.990       .  S
O373        H386   0.990       .  S
C374        C813   1.438       .  S
Zr397       O398   2.441       .  S
Zr397       O399   2.449       .  S
Zr397       O400   2.412       .  S
Zr397       O403   2.444       .  S
Zr397       O405   2.377       .  S
Zr397       O406   2.380       .  S
Zr397       O407   2.414       .  S
Zr397       O408   2.402       .  S
O398        H454   0.990       .  S
O398        H462   0.990       .  S
O399        C419   1.286       .  A
O400        C421   1.278       .  A
O401       Zr411   2.420       .  S
O401        C420   1.281   1_554  A
O402       Zr410   2.462       .  S
O402        C421   1.289       .  A
O403        C420   1.285       .  A
O404       Zr412   2.416       .  S
O404        C419   1.278       .  A
O405       Zr410   2.388       .  S
O405       Zr412   2.375       .  S
O406       Zr411   2.397   1_556  S
O406       Zr412   2.375       .  S
O406        H441   0.966       .  S
O407       Zr410   2.411       .  S
O407       Zr427   2.382   1_556  S
O407        H444   0.964       .  S
O408       Zr411   2.384   1_556  S
O408       Zr427   2.396   1_556  S
Zr409       O434   2.450       .  S
Zr409       O428   2.449   1_556  S
Zr409       O436   2.445   1_556  S
Zr409       O424   2.411       .  S
Zr409       O415   2.401       .  S
Zr409       O416   2.410       .  S
Zr409       O417   2.376       .  S
Zr409       O418   2.380   1_556  S
Zr410       O429   2.434       .  S
Zr410       O422   2.435       .  S
Zr410       O423   2.463       .  S
Zr410       O416   2.410       .  S
Zr410       O417   2.381       .  S
Zr411       O413   2.434       .  S
Zr411       O435   2.437       .  S
Zr411       O437   2.421       .  S
Zr411       O415   2.385   1_554  S
Zr411       O418   2.390       .  S
Zr412       O438   2.436       .  S
Zr412       O439   2.435       .  S
Zr412       O414   2.437       .  S
Zr412       O415   2.395       .  S
Zr412       O416   2.383       .  S
O413        H450   0.990       .  S
O414        H445   0.990       .  S
O414        H459   0.990       .  S
O416        H442   0.964       .  S
O417       Zr427   2.375   1_556  S
O418       Zr427   2.375       .  S
O418        H443   0.965       .  S
C419        C809   1.436       .  S
C420        C842   1.437       .  S
C421        C818   1.433       .  S
O422        H458   0.990       .  S
O423        C425   1.290       .  A
O424        C425   1.279       .  A
C425        C807   1.434       .  S
O426       Zr427   2.441       .  S
O426        H455   0.990       .  S
Zr427       O430   2.438   1_554  S
Zr427       O431   2.443       .  S
Zr427       O432   2.419       .  S
O428        C433   1.287       .  A
O429        H446   0.990       .  S
O429        H461   0.990       .  S
O430        H447   0.990   1_556  S
O431        H451   0.990       .  S
O431        H460   0.990       .  S
O432        C433   1.280       .  A
C433        C854   1.436       .  S
O434        H453   0.990   1_556  S
O434        H457   0.990       .  S
O435        H449   0.990       .  S
O435        H456   0.990   1_554  S
O436        C440   1.286       .  A
O437        C440   1.282       .  A
O438        H448   0.990       .  S
O439        H452   0.990       .  S
C440        C805   1.437       .  S
Zr463       O464   2.442       .  S
Zr463       O465   2.451       .  S
Zr463       O466   2.411       .  S
Zr463       O469   2.442       .  S
Zr463       O471   2.377       .  S
Zr463       O472   2.379       .  S
Zr463       O473   2.414       .  S
Zr463       O474   2.406       .  S
O464        H520   0.991       .  S
O464        H528   0.990       .  S
O465        C485   1.286       .  A
O466        C487   1.278       .  A
O467       Zr477   2.421       .  S
O467        C486   1.282       .  A
O468       Zr476   2.464       .  S
O468        C487   1.289       .  A
O469        C486   1.285       .  A
O470       Zr478   2.419       .  S
O470        C485   1.279       .  A
O471       Zr476   2.390       .  S
O471       Zr478   2.376       .  S
O472       Zr477   2.398       .  S
O472       Zr478   2.374       .  S
O472        H507   0.966       .  S
O473       Zr476   2.411       .  S
O473       Zr493   2.385       .  S
O473        H510   0.964       .  S
O474       Zr477   2.387       .  S
O474       Zr493   2.399       .  S
Zr475       O500   2.449       .  S
Zr475       O494   2.446       .  S
Zr475       O502   2.445       .  S
Zr475       O490   2.413       .  S
Zr475       O481   2.400       .  S
Zr475       O482   2.409       .  S
Zr475       O483   2.376       .  S
Zr475       O484   2.381       .  S
Zr476       O495   2.434       .  S
Zr476       O488   2.435       .  S
Zr476       O489   2.467       .  S
Zr476       O482   2.409       .  S
Zr476       O483   2.381       .  S
Zr477       O479   2.435       .  S
Zr477       O501   2.437       .  S
Zr477       O503   2.424       .  S
Zr477       O481   2.384       .  S
Zr477       O484   2.391       .  S
Zr478       O504   2.436       .  S
Zr478       O505   2.435       .  S
Zr478       O480   2.437       .  S
Zr478       O481   2.396       .  S
Zr478       O482   2.383       .  S
O479        H516   0.990       .  S
O480        H511   0.990       .  S
O480        H525   0.990       .  S
O482        H508   0.964       .  S
O483       Zr493   2.374       .  S
O484       Zr493   2.376       .  S
O484        H509   0.965       .  S
C485        C816   1.438       .  S
C486        C827   1.437       .  S
C487        C810   1.433       .  S
O488        H524   0.990       .  S
O489        C491   1.291       .  A
O490        C491   1.279       .  A
C491        C803   1.436       .  S
O492       Zr493   2.442       .  S
O492        H521   0.990       .  S
Zr493       O496   2.438       .  S
Zr493       O497   2.443       .  S
Zr493       O498   2.427       .  S
O494        C499   1.286       .  A
O495        H512   0.990       .  S
O495        H527   0.990       .  S
O496        H513   0.990       .  S
O497        H517   0.990       .  S
O497        H526   0.990       .  S
O498        C499   1.281       .  A
C499        C802   1.438       .  S
O500        H519   0.990       .  S
O500        H523   0.990       .  S
O501        H515   0.990       .  S
O501        H522   0.990       .  S
O502        C506   1.286       .  A
O503        C506   1.282       .  A
O504        H514   0.990       .  S
O505        H518   0.990       .  S
C506        C843   1.437       .  S
Zr529       O530   2.441       .  S
Zr529       O531   2.450       .  S
Zr529       O532   2.413       .  S
Zr529       O535   2.445       .  S
Zr529       O537   2.377       .  S
Zr529       O538   2.380       .  S
Zr529       O539   2.417       .  S
Zr529       O540   2.405       .  S
O530        H586   0.991       .  S
O530        H594   0.990       .  S
O531        C551   1.286       .  A
O532        C553   1.278       .  A
O533       Zr543   2.420       .  S
O533        C552   1.281       .  A
O534       Zr542   2.473       .  S
O534        C553   1.291       .  A
O535        C552   1.285       .  A
O536       Zr544   2.420       .  S
O536        C551   1.279       .  A
O537       Zr542   2.390       .  S
O537       Zr544   2.377       .  S
O538       Zr543   2.398       .  S
O538       Zr544   2.374       .  S
O538        H573   0.966       .  S
O539       Zr542   2.411       .  S
O539       Zr559   2.384       .  S
O539        H576   0.964       .  S
O540       Zr543   2.385       .  S
O540       Zr559   2.401       .  S
Zr541       O566   2.449       .  S
Zr541       O560   2.451       .  S
Zr541       O568   2.445       .  S
Zr541       O556   2.411       .  S
Zr541       O547   2.402       .  S
Zr541       O548   2.409       .  S
Zr541       O549   2.377       .  S
Zr541       O550   2.380       .  S
Zr542       O561   2.435       .  S
Zr542       O554   2.434       .  S
Zr542       O555   2.470       .  S
Zr542       O548   2.410       .  S
Zr542       O549   2.383       .  S
Zr543       O545   2.435       .  S
Zr543       O567   2.437       .  S
Zr543       O569   2.423       .  S
Zr543       O547   2.385       .  S
Zr543       O550   2.389       .  S
Zr544       O570   2.436       .  S
Zr544       O571   2.435       .  S
Zr544       O546   2.437       .  S
Zr544       O547   2.396       .  S
Zr544       O548   2.383       .  S
O545        H582   0.990       .  S
O546        H577   0.990       .  S
O546        H591   0.990       .  S
O548        H574   0.964       .  S
O549       Zr559   2.374       .  S
O550       Zr559   2.374       .  S
O550        H575   0.965       .  S
C551        C804   1.438       .  S
C552        C839   1.437       .  S
C553        C798   1.439       .  S
O554        H590   0.990       .  S
O555        C557   1.291       .  A
O556        C557   1.279       .  A
C557        C820   1.437       .  S
O558       Zr559   2.440       .  S
O558        H587   0.990       .  S
Zr559       O562   2.439       .  S
Zr559       O563   2.444       .  S
Zr559       O564   2.427       .  S
O560        C565   1.287       .  A
O561        H578   0.990       .  S
O561        H593   0.990       .  S
O562        H579   0.990       .  S
O563        H583   0.990       .  S
O563        H592   0.990       .  S
O564        C565   1.281       .  A
C565        C799   1.440       .  S
O566        H585   0.990       .  S
O566        H589   0.990       .  S
O567        H581   0.990       .  S
O567        H588   0.990       .  S
O568        C572   1.286       .  A
O569        C572   1.282       .  A
O570        H580   0.990       .  S
O571        H584   0.990       .  S
C572        C806   1.437       .  S
Zr595       O596   2.441       .  S
Zr595       O597   2.447       .  S
Zr595       O598   2.418       .  S
Zr595       O601   2.447       .  S
Zr595       O603   2.378       .  S
Zr595       O604   2.380       .  S
Zr595       O605   2.415       .  S
Zr595       O606   2.405       .  S
O596        H652   0.991       .  S
O596        H660   0.990       .  S
O597        C617   1.285       .  A
O598        C619   1.279       .  A
O599       Zr609   2.418       .  S
O599        C618   1.281       .  A
O600       Zr608   2.464       .  S
O600        C619   1.290       .  A
O601        C618   1.285       .  A
O602       Zr610   2.422       .  S
O602        C617   1.279       .  A
O603       Zr608   2.392       .  S
O603       Zr610   2.376       .  S
O604       Zr609   2.398       .  S
O604       Zr610   2.373       .  S
O604        H639   0.966       .  S
O605       Zr608   2.414       .  S
O605       Zr625   2.386       .  S
O605        H642   0.964       .  S
O606       Zr609   2.388       .  S
O606       Zr625   2.401       .  S
Zr607       O632   2.449       .  S
Zr607       O626   2.455       .  S
Zr607       O634   2.448       .  S
Zr607       O622   2.411       .  S
Zr607       O613   2.404       .  S
Zr607       O614   2.411       .  S
Zr607       O615   2.376       .  S
Zr607       O616   2.378       .  S
Zr608       O627   2.434       .  S
Zr608       O620   2.436       .  S
Zr608       O621   2.467       .  S
Zr608       O614   2.409       .  S
Zr608       O615   2.383       .  S
Zr609       O611   2.434       .  S
Zr609       O633   2.437       .  S
Zr609       O635   2.426       .  S
Zr609       O613   2.383       .  S
Zr609       O616   2.390       .  S
Zr610       O636   2.437       .  S
Zr610       O637   2.435       .  S
Zr610       O612   2.437       .  S
Zr610       O613   2.399       .  S
Zr610       O614   2.383       .  S
O611        H648   0.990       .  S
O612        H643   0.990       .  S
O612        H657   0.990       .  S
O614        H640   0.964       .  S
O615       Zr625   2.374       .  S
O616       Zr625   2.375       .  S
O616        H641   0.965       .  S
C617        C795   1.437       .  S
C618        C826   1.438       .  S
C619        C833   1.436       .  S
O620        H656   0.990       .  S
O621        C623   1.291       .  A
O622        C623   1.279       .  A
C623        C801   1.435       .  S
O624       Zr625   2.441       .  S
O624        H653   0.990       .  S
Zr625       O628   2.439       .  S
Zr625       O629   2.444       .  S
Zr625       O630   2.428       .  S
O626        C631   1.288       .  A
O627        H644   0.990       .  S
O627        H659   0.990       .  S
O628        H645   0.990       .  S
O629        H649   0.990       .  S
O629        H658   0.990       .  S
O630        C631   1.281       .  A
C631        C797   1.442       .  S
O632        H651   0.990       .  S
O632        H655   0.990       .  S
O633        H647   0.990       .  S
O633        H654   0.990       .  S
O634        C638   1.286       .  A
O635        C638   1.283       .  A
O636        H646   0.990       .  S
O637        H650   0.990       .  S
C638        C861   1.439       .  S
Zr661       O662   2.442   1_546  S
Zr661       O663   2.452   1_545  S
Zr661       O664   2.410       .  S
Zr661       O667   2.441   1_545  S
Zr661       O669   2.376       .  S
Zr661       O670   2.378   1_545  S
Zr661       O671   2.415       .  S
Zr661       O672   2.405       .  S
O662        H718   0.991       .  S
O662        H726   0.990   1_565  S
O663        C683   1.286       .  A
O664        C685   1.278       .  A
O665       Zr675   2.418       .  S
O665        C684   1.281       .  A
O666       Zr674   2.460       .  S
O666        C685   1.289       .  A
O667        C684   1.284       .  A
O668       Zr676   2.417       .  S
O668        C683   1.279       .  A
O669       Zr674   2.389       .  S
O669       Zr676   2.375   1_545  S
O670       Zr675   2.397       .  S
O670       Zr676   2.373       .  S
O670        H705   0.966       .  S
O671       Zr674   2.410       .  S
O671       Zr691   2.386       .  S
O671        H708   0.964       .  S
O672       Zr675   2.386   1_545  S
O672       Zr691   2.400       .  S
Zr673       O698   2.449       .  S
Zr673       O692   2.447       .  S
Zr673       O700   2.446       .  S
Zr673       O688   2.415       .  S
Zr673       O679   2.401       .  S
Zr673       O680   2.409       .  S
Zr673       O681   2.377       .  S
Zr673       O682   2.381       .  S
Zr674       O693   2.434       .  S
Zr674       O686   2.435       .  S
Zr674       O687   2.461       .  S
Zr674       O680   2.408       .  S
Zr674       O681   2.381       .  S
Zr675       O677   2.435       .  S
Zr675       O699   2.438       .  S
Zr675       O701   2.425       .  S
Zr675       O679   2.383   1_565  S
Zr675       O682   2.389   1_565  S
Zr676       O702   2.436       .  S
Zr676       O703   2.434       .  S
Zr676       O678   2.437   1_565  S
Zr676       O679   2.395   1_565  S
Zr676       O680   2.383   1_565  S
O677        H714   0.990       .  S
O678        H709   0.990   1_545  S
O678        H723   0.990       .  S
O680        H706   0.964       .  S
O681       Zr691   2.374       .  S
O682       Zr691   2.377       .  S
O682        H707   0.965       .  S
C683        C808   1.437       .  S
C684        C793   1.434       .  S
C685        C860   1.431   1_556  S
O686        H722   0.990       .  S
O687        C689   1.290       .  A
O688        C689   1.280       .  A
C689        C796   1.435       .  S
O690       Zr691   2.442   1_554  S
O690        H719   0.990       .  S
Zr691       O694   2.439       .  S
Zr691       O695   2.444       .  S
Zr691       O696   2.427       .  S
O692        C697   1.287       .  A
O693        H710   0.990       .  S
O693        H725   0.990       .  S
O694        H711   0.990       .  S
O695        H715   0.990       .  S
O695        H724   0.990       .  S
O696        C697   1.281       .  A
C697        C829   1.439       .  S
O698        H717   0.990       .  S
O698        H721   0.990       .  S
O699        H713   0.990       .  S
O699        H720   0.990       .  S
O700        C704   1.286       .  A
O701        C704   1.283   1_565  A
O702        H712   0.990       .  S
O703        H716   0.990       .  S
C704        C814   1.438       .  S
Zr727       O728   2.441   1_654  S
Zr727       O729   2.448   1_554  S
Zr727       O730   2.416       .  S
Zr727       O733   2.446   1_554  S
Zr727       O735   2.378       .  S
Zr727       O736   2.378   1_554  S
Zr727       O737   2.416       .  S
Zr727       O738   2.406       .  S
O728        H784   0.991       .  S
O728        H792   0.990   1_556  S
O729        C749   1.285       .  A
O730        C751   1.279       .  A
O731       Zr741   2.416       .  S
O731        C750   1.280       .  A
O732       Zr740   2.467       .  S
O732        C751   1.290       .  A
O733        C750   1.285       .  A
O734       Zr742   2.421       .  S
O734        C749   1.279       .  A
O735       Zr740   2.394       .  S
O735       Zr742   2.378   1_554  S
O736       Zr741   2.397       .  S
O736       Zr742   2.374       .  S
O736        H771   0.966       .  S
O737       Zr740   2.413       .  S
O737       Zr757   2.387       .  S
O737        H774   0.964       .  S
O738       Zr741   2.386   1_554  S
O738       Zr757   2.403       .  S
Zr739       O764   2.449       .  S
Zr739       O758   2.452       .  S
Zr739       O766   2.443       .  S
Zr739       O754   2.412       .  S
Zr739       O745   2.402       .  S
Zr739       O746   2.410       .  S
Zr739       O747   2.374       .  S
Zr739       O748   2.379       .  S
Zr740       O759   2.434       .  S
Zr740       O752   2.434       .  S
Zr740       O753   2.469       .  S
Zr740       O746   2.410       .  S
Zr740       O747   2.382       .  S
Zr741       O743   2.434       .  S
Zr741       O765   2.437       .  S
Zr741       O767   2.421       .  S
Zr741       O745   2.384   1_556  S
Zr741       O748   2.388   1_556  S
Zr742       O768   2.436       .  S
Zr742       O769   2.435       .  S
Zr742       O744   2.437   1_556  S
Zr742       O745   2.398   1_556  S
Zr742       O746   2.383   1_556  S
O743        H780   0.990       .  S
O744        H775   0.990   1_554  S
O744        H789   0.990       .  S
O746        H772   0.964       .  S
O747       Zr757   2.373       .  S
O748       Zr757   2.373       .  S
O748        H773   0.965       .  S
C749        C831   1.438       .  S
C750        C812   1.436       .  S
C751        C838   1.437   1_655  S
O752        H788   0.990       .  S
O753        C755   1.291       .  A
O754        C755   1.279       .  A
C755        C800   1.437       .  S
O756       Zr757   2.441       .  S
O756        H785   0.990   1_655  S
Zr757       O760   2.439       .  S
Zr757       O761   2.445       .  S
Zr757       O762   2.431       .  S
O758        C763   1.287       .  A
O759        H776   0.990       .  S
O759        H791   0.990       .  S
O760        H777   0.990       .  S
O761        H781   0.990       .  S
O761        H790   0.990       .  S
O762        C763   1.282       .  A
C763        C822   1.442       .  S
O764        H783   0.990       .  S
O764        H787   0.990       .  S
O765        H779   0.990       .  S
O765        H786   0.990       .  S
O766        C770   1.285       .  A
O767        C770   1.282   1_556  A
O768        H778   0.990       .  S
O769        H782   0.990   1_556  S
C770        C794   1.434       .  S
C793        C794   1.205   1_556  T
C795        C796   1.207       .  T
C797        C798   1.209       .  T
C799        C800   1.208       .  T
C801        C802   1.208       .  T
C803        C804   1.208       .  T
C805        C806   1.207       .  T
C807        C808   1.206       .  T
C809        C810   1.206       .  T
C811        C812   1.207   1_455  T
C813        C814   1.208   1_565  T
C815        C816   1.207       .  T
C817        C818   1.206       .  T
C819        C820   1.209       .  T
C821        C822   1.210       .  T
C823        C824   1.209       .  T
C825        C826   1.208       .  T
C827        C828   1.207       .  T
C829        C830   1.208       .  T
C831        C832   1.207       .  T
C833        C834   1.208       .  T
C835        C836   1.209       .  T
C837        C838   1.208       .  T
C839        C840   1.207       .  T
C841        C842   1.207   1_554  T
C843        C844   1.207       .  T
C845        C846   1.206   1_655  T
C847        C848   1.207       .  T
C849        C850   1.207       .  T
C851        C852   1.208       .  T
C853        C854   1.206       .  T
C855        C856   1.206       .  T
C857        C858   1.208       .  T
C859        C860   1.205       .  T
C861        C862   1.209       .  T
C863        C864   1.208   1_565  T
