geometry optimzed in LAMMPS
_audit_creation_date              2020-11-30 
_audit_creation_method            'lammps2cif' 
_symmetry_space_group_name_H-M    'P1' 
_symmetry_Int_Tables_number       1 
_symmetry_cell_setting            triclinic 
loop_ 
_symmetry_equiv_pos_as_xyz 
  x,y,z 
_cell_length_a                    33.143812029151654 
_cell_length_b                    33.18796680200731 
_cell_length_c                    33.13086303506967 
_cell_angle_alpha                 90.16175416529016 
_cell_angle_beta                  90.33312678391162 
_cell_angle_gamma                 89.9346752602303 
loop_ 
_atom_site_label 
_atom_site_type_symbol 
_atom_site_fract_x 
_atom_site_fract_y 
_atom_site_fract_z 
_atom_site_charge 
C1          C  0.00617869  0.27107895  0.22101046     0.03240
C2          C  0.03326361  0.29376664  0.24404374    -0.12910
C3          C  0.04492545  0.28101065  0.28216370     0.00740
C4          C  0.03909628  0.24104723  0.29306398    -0.11440
C5          C  0.01039957  0.21767533  0.27269042     0.03230
C6          C  0.99310266  0.23291090  0.23608382    -0.10860
H7          H  0.03948384  0.32463041  0.23524419     0.08820
H8          H  0.04959680  0.23148089  0.32264500     0.06350
H9          H  0.96969195  0.21620494  0.22049315     0.06200
O10         O  0.01407959  0.39319317  0.43025188    -0.86380
O11         O  0.99165368  0.61942616  0.44370041    -0.86550
O12         O  0.93444579  0.50286421  0.38829254    -0.88220
O13         O  0.07166904  0.51448763  0.38778831    -0.86970
O14         O  0.11873067  0.51133157  0.43864394    -0.86560
O15         O  0.88753083  0.49934300  0.43897852    -0.87930
O16         O  0.99560952  0.57254367  0.39254424    -0.86410
O17         O  0.01298032  0.44375538  0.38278055    -0.86000
Zr18       Zr  0.00383861  0.50603643  0.41957876     2.84310
O19         O  0.04277532  0.54692937  0.46278161    -1.07970
O20         O  0.96554280  0.46116479  0.45814298    -1.08700
C21         C  0.01622999  0.40675153  0.39399147     1.06730
C22         C  0.99021941  0.60842392  0.40636857     1.06670
C23         C  0.89745939  0.50096435  0.40167455     1.09650
C24         C  0.10876842  0.51427758  0.40118083     1.07430
H25         H  0.94316657  0.55892021  0.44790114     0.32990
O26         O  0.96192835  0.54262771  0.46314760    -1.28930
H27         H  0.06488584  0.45038976  0.44182864     0.32660
O28         O  0.04624218  0.46490726  0.45879486    -1.30600
O29         O  0.00101445  0.60964917  0.57380685    -0.86380
O30         O  0.00138399  0.38236640  0.55882804    -0.87870
O31         O  0.88665290  0.56092260  0.50582231    -0.86450
O32         O  0.11642075  0.57005311  0.50692378    -0.86500
O33         O  0.12285123  0.44364773  0.49937796    -0.86210
O34         O  0.89263596  0.43316789  0.49495513    -0.86020
O35         O  0.93593519  0.49217277  0.61561336    -0.86390
O36         O  0.07216860  0.49363916  0.61585545    -0.85850
O37         O  0.88879046  0.49321028  0.56475636    -0.86920
O38         O  0.11926490  0.50273465  0.56611379    -0.86080
O39         O  0.93180712  0.61289061  0.51146902    -0.86470
O40         O  0.94181934  0.38498398  0.48985969    -0.86200
O41         O  0.07770682  0.39129273  0.50188081    -0.85850
O42         O  0.06735153  0.61866833  0.50886929    -0.86250
O43         O  0.00541217  0.55827876  0.62028855    -0.86550
O44         O  0.00275755  0.42909417  0.61025698    -0.87890
Zr45       Zr  0.00060947  0.58325353  0.50644006     2.83100
Zr46       Zr  0.00794785  0.41989925  0.49713008     2.83500
Zr47       Zr  0.92417032  0.49829688  0.50157822     2.84090
Zr48       Zr  0.08404336  0.50518677  0.50217708     2.83360
Zr49       Zr  0.00405547  0.49611790  0.58350024     2.84220
O50         O  0.04679533  0.45971209  0.54083413    -1.08460
O51         O  0.96211950  0.53856291  0.54528765    -1.07960
C52         C  0.00447288  0.59549749  0.60976062     1.06700
C53         C  0.99992897  0.39304643  0.59614627     1.09320
C54         C  0.89528738  0.59860376  0.50946936     1.06870
C55         C  0.10499028  0.60704185  0.50875672     1.07230
C56         C  0.11419912  0.40594180  0.50112500     1.06820
C57         C  0.90423008  0.39640879  0.49081877     1.06370
C58         C  0.89881426  0.49163881  0.60228112     1.06790
C59         C  0.10903977  0.49777021  0.60314520     1.06310
H60         H  0.94804055  0.43849310  0.55479356     0.32980
O61         O  0.96526593  0.45643854  0.53985390    -1.29560
H62         H  0.05928696  0.55739627  0.56287511     0.33010
O63         O  0.04241911  0.54136686  0.54524518    -1.30940
C64         C  0.02106682  0.73530614  0.79165638     0.03240
C65         C  0.03213436  0.70764975  0.76202000    -0.12910
C66         C  0.03531604  0.71896568  0.72215388     0.00740
C67         C  0.03196103  0.75891861  0.71134838    -0.11440
C68         C  0.01709918  0.78717872  0.73857870     0.03230
C69         C  0.01125090  0.77563183  0.77976784    -0.10860
H70         H  0.03467506  0.67591253  0.76958977     0.08820
H71         H  0.03516252  0.76681696  0.67971057     0.06350
H72         H  0.99930282  0.79690143  0.80144706     0.06200
C73         C  0.99274197  0.27157584  0.78488671     0.03240
C74         C  0.96795860  0.29505665  0.76015310    -0.12910
C75         C  0.96086729  0.28360626  0.72039396     0.00740
C76         C  0.96724602  0.24390007  0.70902211    -0.11440
C77         C  0.98899280  0.21777105  0.73392868     0.03230
C78         C  0.00351798  0.23202031  0.77196282    -0.10860
H79         H  0.96161261  0.32601157  0.76879606     0.08820
H80         H  0.96100630  0.23490994  0.67808103     0.06350
H81         H  0.02336203  0.21352125  0.79020349     0.06200
C82         C  0.97823067  0.73113172  0.22156056     0.03240
C83         C  0.95000093  0.71037788  0.24476677    -0.12910
C84         C  0.94522211  0.72035678  0.28526338     0.00740
C85         C  0.95659844  0.75845999  0.29836676    -0.11440
C86         C  0.98228921  0.78212190  0.27509304     0.03230
C87         C  0.99491028  0.76769017  0.23671693    -0.10860
H88         H  0.93986149  0.68088409  0.23469165     0.08820
H89         H  0.95144518  0.76695777  0.32957402     0.06350
H90         H  0.01769528  0.78366505  0.21983863     0.06200
O91         O  0.98829572  0.11511019  0.43801969    -0.87400
O92         O  0.00112799  0.88609569  0.43510482    -0.86550
O93         O  0.05978302  0.00143655  0.39135690    -0.88220
O94         O  0.93305051  0.00347964  0.38852788    -0.86970
O95         O  0.88102444  0.00555583  0.43363325    -0.86560
O96         O  0.10942462  0.99948226  0.43975765    -0.87930
O97         O  0.99604589  0.93770150  0.38928304    -0.86410
O98         O  0.99679806  0.06512122  0.39090358    -0.86000
Zr99       Zr  0.99558545  0.00120566  0.42533182     2.84310
O100        O  0.95639089  0.95784313  0.46360627    -1.07970
O101        O  0.03525855  0.04171768  0.46679719    -1.08700
C102        C  0.99242423  0.10233117  0.40089742     1.06730
C103        C  0.99903684  0.90012669  0.39846445     1.06670
C104        C  0.09703894  0.00015452  0.40234562     1.09650
C105        C  0.89541259  0.00603566  0.39707195     1.07430
H106        H  0.05323997  0.94498826  0.44718277     0.32990
O107        O  0.03643290  0.96034818  0.46523643    -1.28930
H108        H  0.93515353  0.05801345  0.44767795     0.32660
O109        O  0.95193034  0.04082396  0.46420170    -1.30600
O110        O  0.99735810  0.88431786  0.57289584    -0.86380
O111        O  0.99733721  0.11209251  0.57478169    -0.87870
O112        O  0.11067118  0.93727101  0.49982102    -0.86450
O113        O  0.88362501  0.93075136  0.48506314    -0.86500
O114        O  0.87962049  0.05955325  0.51875507    -0.86210
O115        O  0.10702036  0.06550135  0.50200885    -0.86020
O116        O  0.05430593  0.99972345  0.62230971    -0.86390
O117        O  0.92727355  0.99488430  0.61671006    -0.85850
O118        O  0.10623232  0.99853670  0.57670947    -0.86920
O119        O  0.87765804  0.98915913  0.56863917    -0.86080
O120        O  0.06381269  0.88645206  0.49570234    -0.86470
O121        O  0.05712196  0.11384125  0.50166770    -0.86200
O122        O  0.92702830  0.11001069  0.52167291    -0.85850
O123        O  0.93446615  0.88384785  0.48964011    -0.86250
O124        O  0.99581746  0.93529485  0.61988945    -0.86550
O125        O  0.99038773  0.06081767  0.62059970    -0.87890
Zr126      Zr  0.99755817  0.91647422  0.50395789     2.83100
Zr127      Zr  0.99229464  0.08150213  0.50607274     2.83500
Zr128      Zr  0.07626311  0.00043814  0.50723736     2.84090
Zr129      Zr  0.91184637  0.99634360  0.50208481     2.83360
Zr130      Zr  0.99234281  0.99769006  0.58412795     2.84220
O131        O  0.95203844  0.03744943  0.54320791    -1.08460
O132        O  0.03649550  0.95755642  0.54647252    -1.07960
C133        C  0.99738232  0.89798519  0.60998665     1.06700
C134        C  0.99454000  0.09821182  0.61139889     1.09320
C135        C  0.10004112  0.90050332  0.49362418     1.06870
C136        C  0.89801032  0.89469909  0.48162457     1.07230
C137        C  0.89109322  0.09592915  0.52636036     1.06820
C138        C  0.09404797  0.10194178  0.49952570     1.06370
C139        C  0.09191817  0.99909367  0.61329644     1.06790
C140        C  0.89003441  0.99113359  0.60601986     1.06310
H141        H  0.05016039  0.05697775  0.56429979     0.32980
O142        O  0.03371225  0.04051574  0.54666509    -1.29560
H143        H  0.93657660  0.93735384  0.55918054     0.33010
O144        O  0.95300266  0.95512852  0.54314024    -1.30940
C145        C  0.23595251  0.28642032  0.49169464     0.03240
C146        C  0.27595108  0.27259486  0.50012125    -0.12910
C147        C  0.28552665  0.23110326  0.49347081     0.00740
C148        C  0.25482489  0.20468459  0.48199550    -0.11440
C149        C  0.21589120  0.21849040  0.47503956     0.03230
C150        C  0.20768614  0.25934576  0.47636633    -0.10860
H151        H  0.29847126  0.29307589  0.51202945     0.08820
H152        H  0.26090206  0.17255538  0.48117991     0.06350
H153        H  0.17703444  0.26947482  0.47044415     0.06200
C154        C  0.78470308  0.27342795  0.50851776     0.03240
C155        C  0.80195247  0.25166831  0.54036571    -0.12910
C156        C  0.78152427  0.21929534  0.55785141     0.00740
C157        C  0.74042655  0.21521626  0.54973305    -0.11440
C158        C  0.72448911  0.23142134  0.51414383     0.03230
C159        C  0.74625988  0.26178188  0.49360964    -0.10860
H160        H  0.83327224  0.25722997  0.54787397     0.08820
H161        H  0.72392351  0.19140731  0.56478253     0.06350
H162        H  0.73433129  0.27488267  0.46612889     0.06200
C163        C  0.72602716  0.77510345  0.49458863     0.03240
C164        C  0.73918802  0.73691570  0.50870635    -0.12910
C165        C  0.77145446  0.71713587  0.48869356     0.00740
C166        C  0.78891414  0.73538881  0.45501393    -0.11440
C167        C  0.78192362  0.77617505  0.44742340     0.03230
C168        C  0.74739265  0.79387665  0.46366466    -0.10860
H169        H  0.72574831  0.72370374  0.53525970     0.08820
H170        H  0.81470005  0.72097117  0.44096600     0.06350
H171        H  0.74008902  0.82489794  0.45670284     0.06200
C172        C  0.28253687  0.77706962  0.48759500     0.03240
C173        C  0.26449389  0.74282218  0.50609102    -0.12910
C174        C  0.22572207  0.72973515  0.49265709     0.00740
C175        C  0.20519280  0.75262026  0.46381142    -0.11440
C176        C  0.22093364  0.78899161  0.45013661     0.03230
C177        C  0.26179716  0.79672579  0.45646396    -0.10860
H178        H  0.27946757  0.72775054  0.53094158     0.08820
H179        H  0.17407234  0.74501757  0.45720992     0.06350
H180        H  0.27439748  0.82422754  0.44413988     0.06200
C181        C  0.72387062  0.99150974  0.22444951     0.03240
C182        C  0.76140904  0.00726225  0.23750667    -0.12910
C183        C  0.78124208  0.98896260  0.27068063     0.00740
C184        C  0.76416569  0.95491996  0.28857142    -0.11440
C185        C  0.72320868  0.94722976  0.28298000     0.03230
C186        C  0.70515784  0.96173831  0.24755505    -0.10860
H187        H  0.77405787  0.03365814  0.22324104     0.08820
H188        H  0.78021248  0.94027566  0.31303554     0.06350
H189        H  0.67432005  0.95389835  0.24009850     0.06200
O190        O  0.39334968  0.07174502  0.50462291    -0.86380
O191        O  0.62139899  0.06990884  0.49459990    -0.86550
O192        O  0.50775926  0.12051399  0.56181377    -0.88220
O193        O  0.50536456  0.11480888  0.43519775    -0.86970
O194        O  0.50691848  0.06648268  0.38562095    -0.86560
O195        O  0.50584770  0.07535265  0.61424096    -0.87930
O196        O  0.57052189  0.11661500  0.49626838    -0.86410
O197        O  0.44394018  0.11857576  0.49960737    -0.86000
Zr198      Zr  0.50703371  0.08208696  0.49969440     2.84310
O199        O  0.54830750  0.04118501  0.45933190    -1.07970
O200        O  0.46680076  0.04413180  0.54274253    -1.08700
C201        C  0.40660072  0.10862778  0.50234027     1.06730
C202        C  0.60795385  0.10683278  0.49448953     1.06670
C203        C  0.50653733  0.11179039  0.59957543     1.09650
C204        C  0.50584576  0.10389605  0.39800114     1.07430
H205        H  0.56353948  0.06363669  0.55670261     0.32990
O206        O  0.54767392  0.04419373  0.54190945    -1.28930
H207        H  0.45010667  0.05878698  0.44401982     0.32660
O208        O  0.46630885  0.04104713  0.46048240    -1.30600
O209        O  0.62057338  0.93506406  0.51228285    -0.86380
O210        O  0.39128744  0.93596153  0.50511492    -0.87870
O211        O  0.57310124  0.01755263  0.61710639    -0.86450
O212        O  0.57142732  0.98781444  0.38847532    -0.86500
O213        O  0.44129138  0.00590065  0.38792422    -0.86210
O214        O  0.44304026  0.00840637  0.61741256    -0.86020
O215        O  0.50610935  0.88935549  0.56892900    -0.86390
O216        O  0.50517267  0.88400192  0.44469708    -0.85850
O217        O  0.51172904  0.93699532  0.61898233    -0.86920
O218        O  0.50308925  0.92855706  0.39179369    -0.86080
O219        O  0.62123935  0.01694839  0.56748237    -0.86470
O220        O  0.39408360  0.00622229  0.56780751    -0.86200
O221        O  0.39288946  0.00886574  0.43768123    -0.85850
O222        O  0.61995813  0.98928100  0.43836029    -0.86250
O223        O  0.56962289  0.88850352  0.50957962    -0.86550
O224        O  0.44156223  0.88853453  0.50632376    -0.87890
Zr225      Zr  0.58900276  0.00253568  0.50294724     2.83100
Zr226      Zr  0.42496068  0.00325528  0.50290312     2.83500
Zr227      Zr  0.50817303  0.00543129  0.58561856     2.84090
Zr228      Zr  0.50645904  0.99902328  0.42000205     2.83360
Zr229      Zr  0.50572066  0.92340735  0.50575955     2.84220
O230        O  0.46449474  0.96082801  0.46230728    -1.08460
O231        O  0.54856208  0.96343104  0.54573880    -1.07960
C232        C  0.60711805  0.89820000  0.51236485     1.06700
C233        C  0.40410089  0.89882463  0.50598622     1.09320
C234        C  0.60917841  0.02346173  0.60397586     1.06870
C235        C  0.60784343  0.98312841  0.40175144     1.07230
C236        C  0.40507218  0.01085201  0.40091013     1.06820
C237        C  0.40625969  0.00799049  0.60465746     1.06370
C238        C  0.50921661  0.89975281  0.60604971     1.06790
C239        C  0.50375662  0.89220707  0.40688779     1.06310
H240        H  0.44917165  0.94787224  0.56318615     0.32980
O241        O  0.46570797  0.96444808  0.54601812    -1.29560
H242        H  0.56243293  0.94148284  0.44912964     0.33010
O243        O  0.54671570  0.96092082  0.46398243    -1.30940
C244        C  0.26243152  0.00630470  0.79011415     0.03240
C245        C  0.22098481  0.00293331  0.77861066    -0.12910
C246        C  0.21068278  0.00378572  0.73670251     0.00740
C247        C  0.24107226  0.00918960  0.70837158    -0.11440
C248        C  0.28120443  0.00988555  0.71990768     0.03230
C249        C  0.29172143  0.00819806  0.76025782    -0.10860
H250        H  0.19780712  0.99970011  0.80123775     0.08820
H251        H  0.23338490  0.01135824  0.67654422     0.06350
H252        H  0.32344037  0.00828831  0.76869614     0.06200
C253        C  0.71677177  0.01788370  0.77740377     0.03240
C254        C  0.70336052  0.05330605  0.75876372    -0.12910
C255        C  0.72168022  0.06721164  0.72335579     0.00740
C256        C  0.76150096  0.05514925  0.71715692    -0.11440
C257        C  0.77396427  0.01729184  0.73091884     0.03230
C258        C  0.75139006  0.99811446  0.76172609    -0.10860
H259        H  0.67498580  0.06591528  0.76864572     0.08820
H260        H  0.77950652  0.07029863  0.69472775     0.06350
H261        H  0.75989850  0.96849823  0.77243527     0.06200
C262        C  0.27119599  0.01937985  0.22962336     0.03240
C263        C  0.23455175  0.00357771  0.24545380    -0.12910
C264        C  0.22014262  0.01829080  0.28323733     0.00740
C265        C  0.24319013  0.04674139  0.30437395    -0.11440
C266        C  0.28184153  0.05593408  0.29150973     0.03230
C267        C  0.29227050  0.04847834  0.25178129    -0.10860
H268        H  0.21887775  0.97945051  0.22992198     0.08820
H269        H  0.23504267  0.05444510  0.33514440     0.06350
H270        H  0.32218734  0.05733486  0.24195036     0.06200
O271        O  0.56604894  0.00288809  0.11672097    -0.86380
O272        O  0.55645957  0.00099266  0.88763966    -0.86550
O273        O  0.60911175  0.93676749  0.00070361    -0.88220
O274        O  0.61116498  0.06344175  0.00128728    -0.86970
O275        O  0.56528244  0.11496379  0.00718198    -0.86560
O276        O  0.56161244  0.88661089  0.99809157    -0.87930
O277        O  0.60627909  0.99988345  0.93580583    -0.86410
O278        O  0.61175832  0.00190562  0.06500244    -0.86000
Zr279      Zr  0.57456385  0.00063447  0.00156797     2.84310
O280        O  0.53369950  0.04384024  0.96349684    -1.07970
O281        O  0.53583634  0.95983032  0.04366119    -1.08700
C282        C  0.60258681  0.00345598  0.10275551     1.06730
C283        C  0.59420385  0.99966742  0.89875174     1.06670
C284        C  0.59891320  0.89943951  0.99875323     1.09650
C285        C  0.60209864  0.10101660  0.00451757     1.07430
H286        H  0.54821803  0.94416622  0.94332161     0.32990
O287        O  0.53246958  0.96089649  0.96119478    -1.28930
H288        H  0.55549551  0.05680138  0.06022950     0.32660
O289        O  0.53675637  0.04102855  0.04442457    -1.30600
O290        O  0.42097411  0.00543202  0.89468519    -0.86380
O291        O  0.43090192  0.00098569  0.12204597    -0.87870
O292        O  0.48355037  0.88950536  0.93802374    -0.86450
O293        O  0.49335700  0.11755522  0.94333617    -0.86500
O294        O  0.50526409  0.11501767  0.07266998    -0.86210
O295        O  0.49516245  0.88726276  0.06716176    -0.86020
O296        O  0.37774244  0.94158992  0.00969249    -0.86390
O297        O  0.37965488  0.06566087  0.00975784    -0.85850
O298        O  0.42367062  0.88997559  0.00489883    -0.86920
O299        O  0.42677805  0.11631322  0.01224426    -0.86080
O300        O  0.48384264  0.94013195  0.89062936    -0.86470
O301        O  0.50063768  0.93574599  0.11680010    -0.86200
O302        O  0.50745444  0.06483116  0.12058835    -0.85850
O303        O  0.48843081  0.06937641  0.89334866    -0.86250
O304        O  0.37612498  0.00263478  0.94711398    -0.86550
O305        O  0.38223124  0.00282588  0.07279175    -0.87890
Zr306      Zr  0.49069764  0.00395522  0.92365461     2.83100
Zr307      Zr  0.49758922  0.00115391  0.08683569     2.83500
Zr308      Zr  0.49338253  0.91992388  0.00305431     2.84090
Zr309      Zr  0.49567597  0.08451971  0.00748738     2.83360
Zr310      Zr  0.41518223  0.00321641  0.00860406     2.84220
O311        O  0.45573850  0.04420910  0.04957385    -1.08460
O312        O  0.45195419  0.96257595  0.96500544    -1.07960
C313        C  0.38464093  0.00418410  0.90942050     1.06700
C314        C  0.39340058  0.00183086  0.10989584     1.09320
C315        C  0.48110852  0.90321975  0.90185783     1.06870
C316        C  0.48973721  0.10584544  0.90646421     1.07230
C317        C  0.51058895  0.10154467  0.10866170     1.06820
C318        C  0.49794148  0.89927147  0.10396127     1.06370
C319        C  0.38698100  0.90416297  0.00756540     1.06790
C320        C  0.38972104  0.10283492  0.01143728     1.06310
H321        H  0.43883304  0.94409857  0.06391408     0.32980
O322        O  0.45560407  0.96061443  0.04692658    -1.29560
H323        H  0.43509619  0.06178387  0.95162249     0.33010
O324        O  0.45307399  0.04481726  0.96709659    -1.30940
C325        C  0.52058888  0.22932108  0.28067660     0.03240
C326        C  0.55106341  0.21004606  0.25894008    -0.12910
C327        C  0.55880617  0.22187649  0.21970887     0.00740
C328        C  0.54945302  0.26092113  0.20813636    -0.11440
C329        C  0.51916236  0.28203692  0.22848645     0.03230
C330        C  0.50365031  0.26576204  0.26514011    -0.10860
H331        H  0.56075012  0.18015649  0.26816626     0.08820
H332        H  0.55776130  0.27033426  0.17793841     0.06350
H333        H  0.47822968  0.27984475  0.27993751     0.06200
C334        C  0.49499674  0.76377794  0.29442786     0.03240
C335        C  0.48621823  0.79225453  0.26499238    -0.12910
C336        C  0.48487987  0.78180719  0.22476190     0.00740
C337        C  0.48906240  0.74223349  0.21278156    -0.11440
C338        C  0.49639304  0.71193404  0.24075674     0.03230
C339        C  0.50037114  0.72249314  0.28262082    -0.10860
H340        H  0.48297706  0.82381731  0.27323561     0.08820
H341        H  0.48861402  0.73510124  0.18074946     0.06350
H342        H  0.50758105  0.69975739  0.30487042     0.06200
C343        C  0.49549619  0.77081732  0.71696432     0.03240
C344        C  0.47039370  0.79494716  0.74038405    -0.12910
C345        C  0.46405064  0.78608854  0.78049063     0.00740
C346        C  0.47490773  0.74886144  0.79571028    -0.11440
C347        C  0.49727031  0.72172281  0.77266429     0.03230
C348        C  0.50957260  0.73331603  0.73301319    -0.10860
H349        H  0.46171436  0.82465909  0.72962921     0.08820
H350        H  0.46971498  0.74261668  0.82742689     0.06350
H351        H  0.52943270  0.71419442  0.71558258     0.06200
C352        C  0.49714370  0.23825949  0.71598668     0.03240
C353        C  0.48780489  0.21160067  0.74696855    -0.12910
C354        C  0.48307607  0.22504987  0.78613820     0.00740
C355        C  0.48555347  0.26548824  0.79522538    -0.11440
C356        C  0.49795170  0.29315594  0.76646557     0.03230
C357        C  0.50388995  0.27984190  0.72573706    -0.10860
H358        H  0.48588268  0.17950102  0.74076183     0.08820
H359        H  0.48125046  0.27502897  0.82632201     0.06350
H360        H  0.51342427  0.30080997  0.70274494     0.06200
O361        O  0.98686854  0.43156309  0.11571046    -0.86380
O362        O  0.01111161  0.43403212  0.88828476    -0.86550
O363        O  0.93427489  0.38635469  0.99824629    -0.88220
O364        O  0.06039130  0.38571364  0.00581152    -0.86970
O365        O  0.11175066  0.43224567  0.00760115    -0.86560
O366        O  0.88372964  0.43357331  0.99692142    -0.87930
O367        O  0.00438238  0.38731871  0.93858240    -0.86410
O368        O  0.99345225  0.38542293  0.06452519    -0.86000
Zr369      Zr  0.99787472  0.42196587  0.00149738     2.84310
O370        O  0.04347561  0.46158500  0.96495610    -1.07970
O371        O  0.95480656  0.46109681  0.04035539    -1.08700
C372        C  0.98893572  0.39472277  0.10199764     1.06730
C373        C  0.00890742  0.39696514  0.90146361     1.06670
C374        C  0.89682029  0.39654069  0.99778587     1.09650
C375        C  0.09780739  0.39546444  0.00702183     1.07430
H376        H  0.94517480  0.44487505  0.93823695     0.32990
O377        O  0.96055159  0.46157837  0.95662688    -1.28930
H378        H  0.05076416  0.44145491  0.06202096     0.32660
O379        O  0.03631428  0.46054291  0.04548059    -1.30600
O380        O  0.00783473  0.57300946  0.89223254    -0.86380
O381        O  0.99793787  0.56771591  0.11880025    -0.87870
O382        O  0.89191175  0.50823327  0.92770477    -0.86450
O383        O  0.11883906  0.50873869  0.94826083    -0.86500
O384        O  0.10883243  0.48912529  0.07669925    -0.86210
O385        O  0.88083951  0.50420366  0.05846031    -0.86020
O386        O  0.93424739  0.61564114  0.99817351    -0.86390
O387        O  0.06042365  0.61725432  0.00800585    -0.85850
O388        O  0.88411011  0.56873072  0.99153030    -0.86920
O389        O  0.11141258  0.57105160  0.01660813    -0.86080
O390        O  0.94512312  0.51096225  0.88320300    -0.86470
O391        O  0.92684086  0.50447627  0.11098167    -0.86200
O392        O  0.05616494  0.48784533  0.12160120    -0.85850
O393        O  0.07358848  0.51107065  0.89532272    -0.86250
O394        O  0.00061466  0.61887519  0.94373332    -0.86550
O395        O  0.99520158  0.61506841  0.06862959    -0.87890
Zr396      Zr  0.00629047  0.50265458  0.92099376     2.83100
Zr397      Zr  0.99390832  0.50014138  0.08512597     2.83500
Zr398      Zr  0.91700885  0.50119975  0.99598345     2.84090
Zr399      Zr  0.08137407  0.50148373  0.01006980     2.83360
Zr400      Zr  0.99819777  0.58071715  0.00498922     2.84220
O401        O  0.03787016  0.54169027  0.04894398    -1.08460
O402        O  0.96181079  0.54131734  0.95977773    -1.07960
C403        C  0.00490189  0.60973209  0.90640894     1.06700
C404        C  0.99672046  0.60480925  0.10591357     1.09320
C405        C  0.90765004  0.51310472  0.89257092     1.06870
C406        C  0.10923033  0.51356987  0.91082137     1.07230
C407        C  0.09348416  0.48289053  0.11183078     1.06820
C408        C  0.89102695  0.50605274  0.09593987     1.06370
C409        C  0.89697775  0.60577819  0.99323891     1.06790
C410        C  0.09761763  0.60784735  0.01310441     1.06310
H411        H  0.93739762  0.55840647  0.05694032     0.32980
O412        O  0.95475712  0.54068203  0.04172639    -1.29560
H413        H  0.05995605  0.56059318  0.95271071     0.33010
O414        O  0.04272133  0.54215817  0.96701009    -1.30940
C415        C  0.76660282  0.50688466  0.28904690     0.03240
C416        C  0.79137848  0.51555346  0.25638930    -0.12910
C417        C  0.77552178  0.52047971  0.21804048     0.00740
C418        C  0.73463856  0.51762091  0.21138234    -0.11440
C419        C  0.70888802  0.50505122  0.24177390     0.03230
C420        C  0.72453969  0.49979599  0.28179997    -0.10860
H421        H  0.82383711  0.51711280  0.26075129     0.08820
H422        H  0.72316315  0.52173119  0.18085652     0.06350
H423        H  0.70496736  0.49057233  0.30610211     0.06200
C424        C  0.22985488  0.49460088  0.28152681     0.03240
C425        C  0.26131844  0.51278464  0.25886939    -0.12910
C426        C  0.27131433  0.49661023  0.22034374     0.00740
C427        C  0.24695266  0.46614822  0.20413981    -0.11440
C428        C  0.21359722  0.45141795  0.22521776     0.03230
C429        C  0.21076963  0.46026887  0.26613199    -0.10860
H430        H  0.27669701  0.53924844  0.27029928     0.08820
H431        H  0.25174493  0.45727361  0.17306714     0.06350
H432        H  0.18710764  0.44616647  0.28357809     0.06200
C433        C  0.23329665  0.51079689  0.72349795     0.03240
C434        C  0.21042230  0.52819026  0.75422516    -0.12910
C435        C  0.22761287  0.53716095  0.79160978     0.00740
C436        C  0.26888339  0.53319783  0.79693837    -0.11440
C437        C  0.29172200  0.51117183  0.76935430     0.03230
C438        C  0.27415621  0.50000463  0.73162329    -0.10860
H439        H  0.17817026  0.53185868  0.74976502     0.08820
H440        H  0.28206098  0.54148508  0.82587810     0.06350
H441        H  0.29140301  0.48309880  0.70969186     0.06200
C442        C  0.77635130  0.51487722  0.71960542     0.03240
C443        C  0.79784613  0.54683431  0.73692343    -0.12910
C444        C  0.79048798  0.55739293  0.77662121     0.00740
C445        C  0.75264193  0.55001275  0.79258597    -0.11440
C446        C  0.72951394  0.51824935  0.77709495     0.03230
C447        C  0.74166370  0.49974987  0.74005331    -0.10860
H448        H  0.82677216  0.55520495  0.72418605     0.08820
H449        H  0.74632928  0.56128669  0.82269397     0.06350
H450        H  0.72617185  0.47326563  0.72884071     0.06200
C451        C  0.21180461  0.26899190  0.00330671     0.03240
C452        C  0.22198293  0.22752089  0.00885811    -0.12910
C453        C  0.26276101  0.21516917  0.00250349     0.00740
C454        C  0.29095134  0.24339331  0.99000070    -0.11440
C455        C  0.28150125  0.28381555  0.98899499     0.03230
C456        C  0.24232888  0.29650521  0.99506563    -0.10860
H457        H  0.19929362  0.20593222  0.01776002     0.08820
H458        H  0.32188231  0.23415226  0.98436448     0.06350
H459        H  0.23551659  0.32851458  0.99422289     0.06200
O460        O  0.49952080  0.38701849  0.06674218    -0.86380
O461        O  0.50331236  0.61415379  0.07519159    -0.86550
O462        O  0.55856722  0.49873034  0.12263986    -0.88220
O463        O  0.43267244  0.50449948  0.11189844    -0.86970
O464        O  0.38531770  0.50710397  0.06150731    -0.86560
O465        O  0.61281848  0.49461664  0.07992531    -0.87930
O466        O  0.49815414  0.56189655  0.12016074    -0.86410
O467        O  0.49625285  0.43641862  0.11508151    -0.86000
Zr468      Zr  0.49867101  0.50035222  0.08163854     2.84310
O469        O  0.46170501  0.54346184  0.04043745    -1.07970
O470        O  0.54297769  0.45995063  0.04436728    -1.08700
C471        C  0.49736824  0.39930954  0.10414225     1.06730
C472        C  0.50059109  0.59950700  0.11164920     1.06670
C473        C  0.59650379  0.49585567  0.11574979     1.09650
C474        C  0.39592960  0.50703089  0.09947459     1.07430
H475        H  0.55816362  0.55625976  0.06644610     0.32990
O476        O  0.54309580  0.54115216  0.04654588    -1.28930
H477        H  0.44166930  0.44418894  0.05395277     0.32660
O478        O  0.45966449  0.46088690  0.03844279    -1.30600
O479        O  0.51219401  0.61972900  0.93809055    -0.86380
O480        O  0.50602285  0.39262295  0.92929941    -0.87870
O481        O  0.62035772  0.56607549  0.02178893    -0.86450
O482        O  0.39274156  0.56942249  0.99631581    -0.86500
O483        O  0.38983489  0.44010119  0.99160374    -0.86210
O484        O  0.61858814  0.43620393  0.00056034    -0.86020
O485        O  0.57468832  0.50421095  0.89215556    -0.86390
O486        O  0.44907591  0.50495042  0.88232068    -0.85850
O487        O  0.62324672  0.50337845  0.94157740    -0.86920
O488        O  0.39571217  0.50041264  0.92576417    -0.86080
O489        O  0.57098506  0.61456969  0.01754976    -0.86470
O490        O  0.56796010  0.38874293  0.99774329    -0.86200
O491        O  0.43878959  0.39087595  0.99271257    -0.85850
O492        O  0.44206387  0.61798017  0.00289339    -0.86250
O493        O  0.51204041  0.57046207  0.88936998    -0.86550
O494        O  0.50896762  0.44506977  0.88433729    -0.87890
Zr495      Zr  0.50636794  0.58493259  0.00507697     2.83100
Zr496      Zr  0.50370654  0.42149341  0.99957087     2.83500
Zr497      Zr  0.58754461  0.50169019  0.00847123     2.84090
Zr498      Zr  0.42283662  0.50414343  0.99624640     2.83360
Zr499      Zr  0.50969078  0.50645138  0.92301776     2.84220
O500        O  0.46620941  0.46432267  0.95794570    -1.08460
O501        O  0.55025413  0.54536269  0.96622080    -1.07960
C502        C  0.51266786  0.60749070  0.90061399     1.06700
C503        C  0.50748443  0.40740718  0.89281980     1.09320
C504        C  0.60730362  0.60268944  0.02461134     1.06870
C505        C  0.40534906  0.60583564  0.99989020     1.07230
C506        C  0.40211896  0.40336320  0.99067317     1.06820
C507        C  0.60499503  0.40006299  0.99610464     1.06370
C508        C  0.61163140  0.50343412  0.90376914     1.06790
C509        C  0.41122830  0.50136548  0.88970738     1.06310
H510        H  0.56401853  0.44767278  0.94650738     0.32980
O511        O  0.54726783  0.46373320  0.96402983    -1.29560
H512        H  0.45110570  0.56389168  0.94254843     0.33010
O513        O  0.46637484  0.54667675  0.96047210    -1.30940
C514        C  0.72824254  0.78447919  0.01504232     0.03240
C515        C  0.76061146  0.76555794  0.99395507    -0.12910
C516        C  0.77591189  0.72797460  0.00820821     0.00740
C517        C  0.75585917  0.70870123  0.03967431    -0.11440
C518        C  0.72089151  0.72514662  0.05619992     0.03230
C519        C  0.71301287  0.76583534  0.04958062    -0.10860
H520        H  0.77281743  0.77911944  0.96698954     0.08820
H521        H  0.76447548  0.67805579  0.04697210     0.06350
H522        H  0.68788547  0.77969152  0.06524637     0.06200
C523        C  0.21059459  0.73622147  0.01043519     0.03240
C524        C  0.21980418  0.77838949  0.01196390    -0.12910
C525        C  0.26113962  0.79065596  0.00938375     0.00740
C526        C  0.29103010  0.76135058  0.00746345    -0.11440
C527        C  0.28139610  0.72122053  0.00373146     0.03230
C528        C  0.24171897  0.70880118  0.00429838    -0.10860
H529        H  0.19602492  0.80051698  0.01512280     0.08820
H530        H  0.32261539  0.77009136  0.00818652     0.06350
H531        H  0.23505268  0.67686587  0.00144918     0.06200
C532        C  0.72945063  0.21560871  0.98596071     0.03240
C533        C  0.76685770  0.23165521  0.00056453    -0.12910
C534        C  0.77980774  0.27022626  0.98656571     0.00740
C535        C  0.75351578  0.29289495  0.96272125    -0.11440
C536        C  0.71550943  0.27845641  0.95243081     0.03230
C537        C  0.70701164  0.23791223  0.95807163    -0.10860
H538        H  0.78475620  0.21515782  0.02238855     0.08820
H539        H  0.76079876  0.32424025  0.95716051     0.06350
H540        H  0.67763203  0.22682595  0.94851479     0.06200
C541        C  0.66057855  0.37674760  0.95333503    -0.21200
C542        C  0.63321644  0.36909845  0.98449669    -0.09240
C543        C  0.62862996  0.33020088  0.99966733     0.29620
C544        C  0.65276766  0.29956869  0.98529925    -0.21200
C545        C  0.68203851  0.30720314  0.95562523    -0.09250
C546        C  0.68471822  0.34580297  0.93857714     0.29620
F547        F  0.71178456  0.35384486  0.90908618    -0.19780
H548        H  0.66280764  0.40649908  0.94012630     0.17990
H549        H  0.65031955  0.27051595  0.99976302     0.18000
F550        F  0.60174978  0.32215317  0.02938621    -0.19760
C551        C  0.37662056  0.66878906  0.97526087    -0.21200
C552        C  0.37468277  0.63590746  0.00131031    -0.09240
C553        C  0.34253389  0.63093077  0.02795652     0.29620
C554        C  0.31202453  0.65908334  0.02849323    -0.21200
C555        C  0.31331665  0.69174418  0.00196974    -0.09250
C556        C  0.34561850  0.69667174  0.97520906     0.29620
F557        F  0.34669591  0.72782144  0.94873667    -0.19780
H558        H  0.40147625  0.67215870  0.95442335     0.17990
H559        H  0.28759558  0.65565436  0.04981622     0.18000
F560        F  0.34116511  0.59928830  0.05381184    -0.19760
C561        C  0.69358251  0.65770196  0.07538293    -0.21200
C562        C  0.68645712  0.69723308  0.06161976    -0.09240
C563        C  0.64986751  0.70536996  0.04101208     0.29620
C564        C  0.62496248  0.67421069  0.02933116    -0.21200
C565        C  0.63480384  0.63429358  0.03847162    -0.09250
C566        C  0.66824218  0.62621545  0.06340213     0.29620
F567        F  0.67684496  0.58811399  0.07553184    -0.19780
H568        H  0.72055606  0.65065989  0.09257667     0.17990
H569        H  0.59851056  0.68153096  0.01139999     0.18000
F570        F  0.63947404  0.74263167  0.02791788    -0.19760
C571        C  0.30927808  0.34692818  0.96206981    -0.21200
C572        C  0.31359214  0.31322754  0.98702838    -0.09240
C573        C  0.34714894  0.30936253  0.01283395     0.29620
C574        C  0.37644126  0.33874784  0.01296160    -0.21200
C575        C  0.37180554  0.37263992  0.98850937    -0.09250
C576        C  0.33811620  0.37700893  0.96321812     0.29620
F577        F  0.33326514  0.41007767  0.93972944    -0.19780
H578        H  0.28330247  0.35016516  0.94232855     0.17990
H579        H  0.40205429  0.33578838  0.03324670     0.18000
F580        F  0.35062841  0.27835489  0.03932868    -0.19760
C581        C  0.65767090  0.51340157  0.79825589    -0.21200
C582        C  0.69792476  0.50276482  0.80499773    -0.09240
C583        C  0.70917922  0.48951118  0.84412473     0.29620
C584        C  0.68140375  0.48948548  0.87604398    -0.21200
C585        C  0.64155513  0.50233860  0.86987382    -0.09250
C586        C  0.62976292  0.51312185  0.82994330     0.29620
F587        F  0.59165802  0.52575851  0.82154108    -0.19780
H588        H  0.64843120  0.52488135  0.76904678     0.17990
H589        H  0.69137822  0.48021016  0.90578937     0.18000
F590        F  0.74803792  0.47953870  0.85232690    -0.19760
C591        C  0.36367118  0.52197920  0.78657101    -0.21200
C592        C  0.33030974  0.49602351  0.78654837    -0.09240
C593        C  0.32750742  0.46744185  0.81793408     0.29620
C594        C  0.35352032  0.46935969  0.85152603    -0.21200
C595        C  0.38445666  0.49809551  0.85341536    -0.09250
C596        C  0.39101646  0.52237347  0.81912312     0.29620
F597        F  0.42223974  0.54864699  0.81822792    -0.19780
H598        H  0.36635896  0.54468607  0.76331982     0.17990
H599        H  0.34898686  0.44889656  0.87639628     0.18000
F600        F  0.29605877  0.44128725  0.81864559    -0.19760
C601        C  0.34432376  0.49961281  0.20270464    -0.21200
C602        C  0.30461471  0.51107678  0.19381150    -0.09240
C603        C  0.29576549  0.52450546  0.15425882     0.29620
C604        C  0.32526425  0.52362263  0.12385139    -0.21200
C605        C  0.36457761  0.50987693  0.13210935    -0.09250
C606        C  0.37396390  0.49905180  0.17255545     0.29620
F607        F  0.41122125  0.48531096  0.18281580    -0.19780
H608        H  0.35173487  0.48803139  0.23237981     0.17990
H609        H  0.31696099  0.53271681  0.09357205     0.18000
F610        F  0.25756873  0.53568659  0.14434798    -0.19760
C611        C  0.66515436  0.46044920  0.20149667    -0.21200
C612        C  0.66798645  0.49540169  0.22586127    -0.09240
C613        C  0.64312225  0.52835439  0.21568403     0.29620
C614        C  0.62031813  0.52808935  0.17978464    -0.21200
C615        C  0.62189930  0.49518957  0.15293509    -0.09250
C616        C  0.64291936  0.46050828  0.16511760     0.29620
F617        F  0.64283082  0.42711515  0.14138707    -0.19780
H618        H  0.68451805  0.43489828  0.20787491     0.17990
H619        H  0.60280555  0.55455539  0.17192149     0.18000
F620        F  0.64553559  0.56302684  0.23739290    -0.19760
C621        C  0.84863778  0.71010798  0.00585524    -0.21200
C622        C  0.80967720  0.70420415  0.99028438    -0.09240
C623        C  0.80099980  0.66682966  0.97159398     0.29620
C624        C  0.82947011  0.63525983  0.97167416    -0.21200
C625        C  0.86754865  0.64022118  0.98995576    -0.09250
C626        C  0.87727386  0.67884395  0.00562549     0.29620
F627        F  0.91344348  0.68577974  0.02376194    -0.19780
H628        H  0.85576024  0.73783234  0.02169006     0.17990
H629        H  0.82114886  0.60645691  0.95865168     0.18000
F630        F  0.76336586  0.65953934  0.95695884    -0.19760
C631        C  0.84282987  0.35370017  0.03049746    -0.21200
C632        C  0.86790112  0.36206261  0.99742830    -0.09240
C633        C  0.86904182  0.33407449  0.96554335     0.29620
C634        C  0.84476263  0.29949821  0.96588298    -0.21200
C635        C  0.81767018  0.29210896  0.99754103    -0.09250
C636        C  0.81772913  0.31927310  0.03047009     0.29620
F637        F  0.79110785  0.31426413  0.06100458    -0.19780
H638        H  0.84215345  0.37418212  0.05599360     0.17990
H639        H  0.84400936  0.28054505  0.93920031     0.18000
F640        F  0.89157188  0.34175935  0.93246722    -0.19760
C641        C  0.12592553  0.66938215  0.98042951    -0.21200
C642        C  0.12506633  0.64332605  0.01394650    -0.09240
C643        C  0.14448836  0.65572271  0.04960550     0.29620
C644        C  0.16664872  0.69188168  0.05062312    -0.21200
C645        C  0.17086602  0.71611405  0.01585385    -0.09250
C646        C  0.14890868  0.70499623  0.98109702     0.29620
F647        F  0.15306563  0.72636999  0.94650220    -0.19780
H648        H  0.10972861  0.66135475  0.95306849     0.17990
H649        H  0.18421963  0.69879843  0.07743345     0.18000
F650        F  0.14247495  0.63265871  0.08328554    -0.19760
C651        C  0.15658046  0.30524061  0.96965023    -0.21200
C652        C  0.17134437  0.28802127  0.00569572    -0.09240
C653        C  0.15939363  0.30550211  0.04253864     0.29620
C654        C  0.13634858  0.34117893  0.04299767    -0.21200
C655        C  0.12555557  0.36049409  0.00677264    -0.09250
C656        C  0.13441808  0.34123895  0.97010646     0.29620
F657        F  0.12271172  0.35802076  0.93458176    -0.19780
H658        H  0.16622943  0.29324514  0.94081549     0.17990
H659        H  0.12765550  0.35422516  0.07166580     0.18000
F660        F  0.17317541  0.29013552  0.07794091    -0.19760
C661        C  0.84748313  0.57631557  0.82172775    -0.21200
C662        C  0.82330387  0.54678839  0.80399193    -0.09240
C663        C  0.82924452  0.50565509  0.81349182     0.29620
C664        C  0.85743605  0.49462546  0.84218217    -0.21200
C665        C  0.88054827  0.52420208  0.86066783    -0.09250
C666        C  0.87647038  0.56485163  0.84999061     0.29620
F667        F  0.89963345  0.59324049  0.86805608    -0.19780
H668        H  0.84337577  0.60782553  0.81431694     0.17990
H669        H  0.86090461  0.46319779  0.85034623     0.18000
F670        F  0.80693817  0.47614309  0.79591411    -0.19760
C671        C  0.17898042  0.50572093  0.88790152    -0.21200
C672        C  0.14147624  0.52425125  0.88356370    -0.09240
C673        C  0.13494939  0.55278426  0.85295294     0.29620
C674        C  0.16510203  0.56040592  0.82508864    -0.21200
C675        C  0.20150549  0.53901943  0.82711019    -0.09250
C676        C  0.20876690  0.51252643  0.85966811     0.29620
F677        F  0.24287614  0.49002847  0.86226914    -0.19780
H678        H  0.18434147  0.48397282  0.91168953     0.17990
H679        H  0.15915664  0.58109792  0.80052018     0.18000
F680        F  0.09917826  0.57247631  0.84943940    -0.19760
C681        C  0.11241668  0.47458523  0.18334789    -0.21200
C682        C  0.12019272  0.46643321  0.14283245    -0.09240
C683        C  0.15236591  0.44078824  0.13257186     0.29620
C684        C  0.17948453  0.42830103  0.16223404    -0.21200
C685        C  0.17612852  0.44321980  0.20181310    -0.09250
C686        C  0.13982646  0.46299336  0.21282659     0.29620
F687        F  0.13233596  0.47565042  0.25098042    -0.19780
H688        H  0.08643478  0.49237966  0.19206952     0.17990
H689        H  0.20557207  0.41083181  0.15326360     0.18000
F690        F  0.15854973  0.42909655  0.09379380    -0.19760
C691        C  0.86440795  0.54211188  0.15386415    -0.21200
C692        C  0.85933819  0.51231675  0.12430549    -0.09240
C693        C  0.82494640  0.48814370  0.12308961     0.29620
C694        C  0.79649581  0.49240723  0.15306273    -0.21200
C695        C  0.80222686  0.52117621  0.18373463    -0.09250
C696        C  0.83571171  0.54676868  0.18354618     0.29620
F697        F  0.84110737  0.57520857  0.21261766    -0.19780
H698        H  0.89090117  0.56124738  0.15421663     0.17990
H699        H  0.77104295  0.47194118  0.15348187     0.18000
F700        F  0.82031342  0.45889949  0.09466524    -0.19760
C701        C  0.47370046  0.35776451  0.79456315    -0.21200
C702        C  0.50693660  0.33331412  0.78456074    -0.09240
C703        C  0.54174424  0.33611469  0.80933308     0.29620
C704        C  0.54151507  0.35908790  0.84516620    -0.21200
C705        C  0.50690767  0.38047509  0.85678189    -0.09250
C706        C  0.47373055  0.38123143  0.83000057     0.29620
F707        F  0.44038000  0.40310369  0.83925376    -0.19780
H708        H  0.44603106  0.35539040  0.77715350     0.17990
H709        H  0.56817442  0.35959297  0.86423343     0.18000
F710        F  0.57420447  0.31243880  0.80149593    -0.19760
C711        C  0.47523169  0.65953140  0.80614539    -0.21200
C712        C  0.50783270  0.68408297  0.79484061    -0.09240
C713        C  0.54322651  0.68258105  0.81875225     0.29620
C714        C  0.54493183  0.65861740  0.85396844    -0.21200
C715        C  0.51100429  0.63660206  0.86650867    -0.09250
C716        C  0.47648077  0.63682547  0.84168978     0.29620
F717        F  0.44292222  0.61660871  0.85314929    -0.19780
H718        H  0.44698317  0.66135591  0.78960234     0.17990
H719        H  0.57244742  0.65775737  0.87172879     0.18000
F720        F  0.57498139  0.70661090  0.80970320    -0.19760
C721        C  0.46500130  0.65372120  0.20635884    -0.21200
C722        C  0.50068161  0.67160434  0.22128252    -0.09240
C723        C  0.53688397  0.66338110  0.20049218     0.29620
C724        C  0.53661954  0.64115592  0.16414513    -0.21200
C725        C  0.50031368  0.62651384  0.14763743    -0.09250
C726        C  0.46476965  0.63146428  0.17014508     0.29620
F727        F  0.42936120  0.61621021  0.15611133    -0.19780
H728        H  0.43643556  0.66057266  0.22057132     0.17990
H729        H  0.56476411  0.63593093  0.14849729     0.18000
F730        F  0.57188292  0.68062400  0.21308284    -0.19760
C731        C  0.51584915  0.38103003  0.17528072    -0.21200
C732        C  0.49716800  0.37005616  0.13839455    -0.09240
C733        C  0.47779457  0.33252722  0.13612230     0.29620
C734        C  0.47942426  0.30587383  0.16906212    -0.21200
C735        C  0.50101853  0.31560849  0.20472357    -0.09250
C736        C  0.51812517  0.35411639  0.20780741     0.29620
F737        F  0.54039231  0.36427124  0.24080212    -0.19780
H738        H  0.53073231  0.40994271  0.17828152     0.17990
H739        H  0.46674355  0.27609383  0.16528868     0.18000
F740        F  0.45805774  0.32123412  0.10192636    -0.19760
C741        C  0.67212470  0.11892682  0.98173781    -0.21200
C742        C  0.63777950  0.12890567  0.00480617    -0.09240
C743        C  0.63975987  0.16355807  0.02928296     0.29620
C744        C  0.67410474  0.18863247  0.02849104    -0.21200
C745        C  0.70691930  0.18046102  0.00260504    -0.09250
C746        C  0.70591332  0.14445849  0.98024092     0.29620
F747        F  0.73595147  0.13595774  0.95387501    -0.19780
H748        H  0.67203208  0.09209457  0.96303686     0.17990
H749        H  0.67348171  0.21662374  0.04536318     0.18000
F750        F  0.60834669  0.17361577  0.05340991    -0.19760
C751        C  0.29815069  0.84166258  0.97111174    -0.21200
C752        C  0.27812595  0.83206409  0.00737025    -0.09240
C753        C  0.29303906  0.84935460  0.04336451     0.29620
C754        C  0.32897598  0.87199705  0.04341564    -0.21200
C755        C  0.35146342  0.87692082  0.00785449    -0.09250
C756        C  0.33484624  0.86280415  0.97144436     0.29620
F757        F  0.35477294  0.86835938  0.93627591    -0.19780
H758        H  0.28825518  0.82793309  0.94304133     0.17990
H759        H  0.34004649  0.88458824  0.07157376     0.18000
F760        F  0.27526653  0.84061867  0.07907300    -0.19760
C761        C  0.66964439  0.88106724  0.01927706    -0.21200
C762        C  0.63399755  0.87065561  0.99811177    -0.09240
C763        C  0.63418564  0.83471481  0.97545850     0.29620
C764        C  0.66834922  0.80916997  0.97594780    -0.21200
C765        C  0.70278917  0.81838002  0.99956918    -0.09250
C766        C  0.70323565  0.85527171  0.02041488     0.29620
F767        F  0.73493091  0.86477598  0.04475301    -0.19780
H768        H  0.67091521  0.90868433  0.03670300     0.17990
H769        H  0.66660341  0.78040603  0.96050658     0.18000
F770        F  0.60131556  0.82397028  0.95335121    -0.19760
C771        C  0.30601838  0.17320341  0.04594429    -0.21200
C772        C  0.28134512  0.17542853  0.01108637    -0.09240
C773        C  0.29188940  0.15144025  0.97768013     0.29620
C774        C  0.32787000  0.12912020  0.97785960    -0.21200
C775        C  0.35451725  0.13043755  0.01107633    -0.09250
C776        C  0.34237246  0.15123884  0.04588952     0.29620
F777        F  0.36585982  0.15076841  0.07957335    -0.19780
H778        H  0.29940015  0.19221765  0.07171083     0.17990
H779        H  0.33561699  0.11155407  0.95137985     0.18000
F780        F  0.26989866  0.15357509  0.94305537    -0.19760
C781        C  0.51362453  0.16900763  0.87839260    -0.21200
C782        C  0.48652313  0.13693435  0.87674160    -0.09240
C783        C  0.45678570  0.13464524  0.84658259     0.29620
C784        C  0.45463702  0.16450318  0.81758684    -0.21200
C785        C  0.48235919  0.19619262  0.81867438    -0.09250
C786        C  0.51198147  0.19842368  0.84911459     0.29620
F787        F  0.54048419  0.22782054  0.84931740    -0.19780
H788        H  0.53685256  0.17045402  0.90152662     0.17990
H789        H  0.43191228  0.16270447  0.79400432     0.18000
F790        F  0.42983651  0.10385827  0.84550285    -0.19760
C791        C  0.44232838  0.84771760  0.87204184    -0.21200
C792        C  0.47492822  0.87442397  0.87024931    -0.09240
C793        C  0.50131645  0.87425046  0.83763282     0.29620
C794        C  0.49541736  0.84685010  0.80691510    -0.21200
C795        C  0.46315085  0.81950921  0.80860546    -0.09250
C796        C  0.43631990  0.82012438  0.84102822     0.29620
F797        F  0.40547372  0.79337196  0.84309626    -0.19780
H798        H  0.42191535  0.84819436  0.89743593     0.17990
H799        H  0.51738998  0.84547826  0.78282980     0.18000
F800        F  0.53389364  0.89906630  0.83669100    -0.19760
C801        C  0.46533028  0.83968349  0.13081864    -0.21200
C802        C  0.49563498  0.86881673  0.13419846    -0.09240
C803        C  0.52130906  0.87030873  0.16775981     0.29620
C804        C  0.51678062  0.84217335  0.19791979    -0.21200
C805        C  0.48633868  0.81304476  0.19472939    -0.09250
C806        C  0.46045110  0.81183432  0.16126172     0.29620
F807        F  0.43063073  0.78394485  0.15826727    -0.19780
H808        H  0.44495965  0.83917241  0.10510120     0.17990
H809        H  0.53752975  0.84249547  0.22333086     0.18000
F810        F  0.55105388  0.89830785  0.17082042    -0.19760
C811        C  0.49460003  0.15601752  0.15454729    -0.21200
C812        C  0.52333763  0.13060179  0.13805761    -0.09240
C813        C  0.56452196  0.13504873  0.14731131     0.29620
C814        C  0.57689611  0.16554353  0.17356646    -0.21200
C815        C  0.54799302  0.19131762  0.18999746    -0.09250
C816        C  0.50665644  0.18602684  0.18073965     0.29620
F817        F  0.47772824  0.20926165  0.19787541    -0.19780
H818        H  0.46288225  0.15251896  0.14716030     0.17990
H819        H  0.60854404  0.16901349  0.18110933     0.18000
F820        F  0.59247835  0.11043660  0.13036006    -0.19760
C821        C  0.36178556  0.97990193  0.17550994    -0.21200
C822        C  0.35949044  0.00176281  0.13942463    -0.09240
C823        C  0.32295180  0.02203863  0.13021928     0.29620
C824        C  0.29096122  0.02271239  0.15773574    -0.21200
C825        C  0.29406974  0.00280404  0.19482133    -0.09250
C826        C  0.32936815  0.98004187  0.20271276     0.29620
F827        F  0.33404599  0.96102448  0.23860460    -0.19780
H828        H  0.38891504  0.96322486  0.18297975     0.17990
H829        H  0.26506523  0.04170417  0.15151775     0.18000
F830        F  0.31901898  0.04366595  0.09568127    -0.19760
C831        C  0.65014545  0.98989626  0.79812088    -0.21200
C832        C  0.68972288  0.00126691  0.80905916    -0.09240
C833        C  0.69812896  0.00870710  0.84993338     0.29620
C834        C  0.66724721  0.00683998  0.87873645    -0.21200
C835        C  0.62692583  0.99805128  0.86754221    -0.09250
C836        C  0.61909531  0.98829474  0.82683298     0.29620
F837        F  0.58128967  0.97847448  0.81437035    -0.19780
H838        H  0.64266519  0.98504774  0.76659998     0.17990
H839        H  0.67474202  0.01430015  0.90972372     0.18000
F840        F  0.73543217  0.02119819  0.86152154    -0.19760
C841        C  0.29212605  0.97144359  0.84929515    -0.21200
C842        C  0.27958735  0.00785599  0.83158784    -0.09240
C843        C  0.30015587  0.04351179  0.84275192     0.29620
C844        C  0.33473999  0.04201759  0.86734686    -0.21200
C845        C  0.34915837  0.00513525  0.88201751    -0.09250
C846        C  0.32629549  0.97014874  0.87463995     0.29620
F847        F  0.33829351  0.93434076  0.89022728    -0.19780
H848        H  0.27784549  0.94342445  0.84039888     0.17990
H849        H  0.35089667  0.06960656  0.87411117     0.18000
F850        F  0.28991476  0.07909046  0.82532578    -0.19760
C851        C  0.48379877  0.13601435  0.33209679    -0.21200
C852        C  0.50517160  0.13819510  0.36872263    -0.09240
C853        C  0.52400746  0.17517571  0.37898316     0.29620
C854        C  0.52375176  0.20779205  0.35214398    -0.21200
C855        C  0.50439183  0.20492687  0.31457946    -0.09250
C856        C  0.48311747  0.16903441  0.30546669     0.29620
F857        F  0.46477235  0.16459996  0.26901819    -0.19780
H858        H  0.46811646  0.10857177  0.32380268     0.17990
H859        H  0.54168094  0.23416259  0.35931472     0.18000
F860        F  0.54511134  0.17909444  0.41402895    -0.19760
C861        C  0.46681072  0.83365849  0.37643680    -0.21200
C862        C  0.50261974  0.85603054  0.38015630    -0.09240
C863        C  0.53826499  0.83933353  0.36441980     0.29620
C864        C  0.53717059  0.80312739  0.34207822    -0.21200
C865        C  0.50055214  0.78251645  0.33501825    -0.09250
C866        C  0.46570005  0.79741571  0.35429808     0.29620
F867        F  0.42949310  0.77951725  0.34742473    -0.19780
H868        H  0.43924099  0.84500283  0.38968500     0.17990
H869        H  0.56427751  0.79339269  0.32673579     0.18000
F870        F  0.57400702  0.85857697  0.36976848    -0.19760
C871        C  0.46521224  0.19930173  0.66075644    -0.21200
C872        C  0.50041071  0.21814291  0.67577685    -0.09240
C873        C  0.53797146  0.20266897  0.66329287     0.29620
C874        C  0.54001918  0.16785400  0.63880316    -0.21200
C875        C  0.50472811  0.14721334  0.62713032    -0.09250
C876        C  0.46727901  0.16412677  0.63721119     0.29620
F877        F  0.43257397  0.14571728  0.62550569    -0.19780
H878        H  0.43589027  0.20951941  0.67087781     0.17990
H879        H  0.56924290  0.15624248  0.62999701     0.18000
F880        F  0.57265634  0.21912621  0.67768506    -0.19760
C881        C  0.54066771  0.85556871  0.66019553    -0.21200
C882        C  0.50843655  0.86455615  0.63398430    -0.09240
C883        C  0.47812453  0.83516162  0.62850679     0.29620
C884        C  0.47863190  0.79918420  0.65055245    -0.21200
C885        C  0.50881215  0.79154915  0.67953075    -0.09250
C886        C  0.54093920  0.81942733  0.68266479     0.29620
F887        F  0.57059398  0.81346468  0.71041875    -0.19780
H888        H  0.56543345  0.87659597  0.66349953     0.17990
H889        H  0.45275498  0.77934518  0.64840392     0.18000
F890        F  0.44668318  0.84217091  0.60297243    -0.19760
C891        C  0.33813784  0.07544965  0.33749794    -0.21200
C892        C  0.31359226  0.04588891  0.32021276    -0.09240
C893        C  0.32064576  0.00471775  0.32823695     0.29620
C894        C  0.35124168  0.99332365  0.35417877    -0.21200
C895        C  0.37529048  0.02272175  0.37177632    -0.09250
C896        C  0.36916718  0.06381391  0.36351597     0.29620
F897        F  0.39288573  0.09236123  0.38098187    -0.19780
H898        H  0.33326167  0.10702835  0.33087615     0.17990
H899        H  0.35608292  0.96168866  0.36069643     0.18000
F900        F  0.29816731  0.97545623  0.31043908    -0.19760
C901        C  0.67903405  0.04388805  0.62176765    -0.21200
C902        C  0.63818889  0.04235379  0.63194543    -0.09240
C903        C  0.62516450  0.06311129  0.66664741     0.29620
C904        C  0.65332418  0.07988457  0.69313370    -0.21200
C905        C  0.69495991  0.07376982  0.68716861    -0.09250
C906        C  0.70714026  0.06017166  0.64840618     0.29620
F907        F  0.74615992  0.05963620  0.63646885    -0.19780
H908        H  0.68969778  0.03122009  0.59360249     0.17990
H909        H  0.64216838  0.09426728  0.72017946     0.18000
F910        F  0.58539628  0.06657294  0.67568986    -0.19760
C911        C  0.34192134  0.98300089  0.62926728    -0.21200
C912        C  0.37495112  0.00871486  0.63445214    -0.09240
C913        C  0.37705050  0.03532046  0.66720612     0.29620
C914        C  0.34565429  0.03640101  0.69456456    -0.21200
C915        C  0.31267436  0.01037198  0.68965706    -0.09250
C916        C  0.31099949  0.98341076  0.65699255     0.29620
F917        F  0.28032705  0.95660150  0.65265776    -0.19780
H918        H  0.34051773  0.96205842  0.60412033     0.17990
H919        H  0.34704274  0.05743857  0.71960374     0.18000
F920        F  0.40876334  0.06078575  0.67204886    -0.19760
C921        C  0.70632165  0.99111135  0.15165510    -0.21200
C922        C  0.69982610  0.00733855  0.19016196    -0.09240
C923        C  0.66264313  0.02627546  0.19818644     0.29620
C924        C  0.63142131  0.02558206  0.16950061    -0.21200
C925        C  0.63684145  0.00667799  0.13192159    -0.09250
C926        C  0.67536218  0.99100524  0.12262353     0.29620
F927        F  0.68231420  0.97271081  0.08664537    -0.19780
H928        H  0.73422082  0.97537359  0.14522163     0.17990
H929        H  0.60255208  0.03876601  0.17720170     0.18000
F930        F  0.65527283  0.04187451  0.23535146    -0.19760
C931        C  0.65620372  0.93060471  0.31300222    -0.21200
C932        C  0.69697198  0.94110974  0.31890335    -0.09240
C933        C  0.70817455  0.95804578  0.35669391     0.29620
C934        C  0.67887424  0.97120442  0.38326279    -0.21200
C935        C  0.63797441  0.96703405  0.37375844    -0.09250
C936        C  0.62674669  0.94438987  0.33955447     0.29620
F937        F  0.58743329  0.93635261  0.33113069    -0.19780
H938        H  0.64656558  0.91481597  0.28600113     0.17990
H939        H  0.68848576  0.98637847  0.41067424     0.18000
F940        F  0.74695489  0.96552586  0.36738691    -0.19760
C941        C  0.35480014  0.79707847  0.48313743    -0.21200
C942        C  0.31799323  0.79981698  0.50363929    -0.09240
C943        C  0.31095892  0.83438689  0.52761983     0.29620
C944        C  0.33862165  0.86660631  0.52833843    -0.21200
C945        C  0.37457022  0.86462806  0.50615852    -0.09250
C946        C  0.38302078  0.82861678  0.48485572     0.29620
F947        F  0.41750781  0.82488055  0.46329836    -0.19780
H948        H  0.36044402  0.77170428  0.46331112     0.17990
H949        H  0.33166297  0.89333554  0.54580559     0.18000
F950        F  0.27556519  0.83840999  0.54763941    -0.19760
C951        C  0.65375569  0.79374128  0.49865505    -0.21200
C952        C  0.69321483  0.79965622  0.51269359    -0.09240
C953        C  0.70295282  0.83692935  0.53095838     0.29620
C954        C  0.67480262  0.86860947  0.53180925    -0.21200
C955        C  0.63611458  0.86367618  0.51501375    -0.09250
C956        C  0.62542911  0.82512999  0.49983175     0.29620
F957        F  0.58860372  0.81844927  0.48294442    -0.19780
H958        H  0.64589920  0.76594376  0.48330170     0.17990
H959        H  0.68378625  0.89743940  0.54431938     0.18000
F960        F  0.74112437  0.84393061  0.54427377    -0.19760
C961        C  0.65279425  0.21093278  0.51333116    -0.21200
C962        C  0.69110712  0.20758245  0.49614818    -0.09240
C963        C  0.70086851  0.17184442  0.47508304     0.29620
C964        C  0.67393666  0.13911730  0.47405583    -0.21200
C965        C  0.63643535  0.14167150  0.49336285    -0.09250
C966        C  0.62566893  0.17867182  0.51187258     0.29620
F967        F  0.59007519  0.18280890  0.53157119    -0.19780
H968        H  0.64522330  0.23730380  0.53110591     0.17990
H969        H  0.68286121  0.11145525  0.45914554     0.18000
F970        F  0.73823727  0.16709827  0.45918624    -0.19760
C971        C  0.33185723  0.18956378  0.53586948    -0.21200
C972        C  0.32532165  0.21114668  0.49981891    -0.09240
C973        C  0.34726995  0.19946123  0.46539872     0.29620
C974        C  0.37345362  0.16616123  0.46661475    -0.21200
C975        C  0.37771618  0.14300164  0.50182541    -0.09250
C976        C  0.35781707  0.15590811  0.53694727     0.29620
F977        F  0.36283352  0.13550536  0.57204860    -0.19780
H978        H  0.31428732  0.19680012  0.56239066     0.17990
H979        H  0.38934591  0.15746523  0.43945869     0.18000
F980        F  0.34024317  0.21784169  0.42947616    -0.19760
C981        C  0.87306503  0.00242115  0.67923368    -0.21200
C982        C  0.86040709  0.99009770  0.64022139    -0.09240
C983        C  0.81981027  0.97856370  0.63512001     0.29620
C984        C  0.79253666  0.98188876  0.66740998    -0.21200
C985        C  0.80480723  0.99718644  0.70532633    -0.09250
C986        C  0.84567816  0.00633901  0.71112704     0.29620
F987        F  0.85842685  0.02263525  0.74658467    -0.19780
H988        H  0.90400020  0.01144426  0.68473707     0.17990
H989        H  0.76086873  0.97589406  0.66176752     0.18000
F990        F  0.80595434  0.96577243  0.59866155    -0.19760
C991        C  0.14719585  0.03214525  0.70871585    -0.21200
C992        C  0.17019707  0.99780350  0.71819253    -0.09240
C993        C  0.16467111  0.96287167  0.69429259     0.29620
C994        C  0.14017628  0.96374325  0.65958207    -0.21200
C995        C  0.11968935  0.99902385  0.64856744    -0.09250
C996        C  0.12170587  0.03259012  0.67462930     0.29620
F997        F  0.10069579  0.06661760  0.66582114    -0.19780
H998        H  0.15172752  0.05978958  0.72559321     0.17990
H999        H  0.13774801  0.93701491  0.64088781     0.18000
F1000       F  0.18700065  0.92937345  0.70182504    -0.19760
C1001       C  0.16473918  0.98064269  0.37400449    -0.21200
C1002       C  0.12704899  0.99917974  0.36879903    -0.09240
C1003       C  0.11787942  0.01611170  0.33060508     0.29620
C1004       C  0.14703472  0.01762133  0.30005341    -0.21200
C1005       C  0.18559987  0.00146463  0.30627662    -0.09250
C1006       C  0.19346214  0.98128658  0.34305833     0.29620
F1007       F  0.23040682  0.96533616  0.35054333    -0.19780
H1008       H  0.17236490  0.96636530  0.40241129     0.17990
H1009       H  0.14047248  0.03424195  0.27269187     0.18000
F1010       F  0.08158346  0.03369522  0.32347533    -0.19760
C1011       C  0.85312179  0.99410147  0.29036820    -0.21200
C1012       C  0.81368537  0.00817829  0.29476856    -0.09240
C1013       C  0.80293094  0.02716416  0.33135756     0.29620
C1014       C  0.82940367  0.02687618  0.36462171    -0.21200
C1015       C  0.86785334  0.00949397  0.36135004    -0.09250
C1016       C  0.88027487  0.99558544  0.32282447     0.29620
F1017       F  0.91794596  0.98089997  0.31682292    -0.19780
H1018       H  0.86192742  0.97890716  0.26279921     0.17990
H1019       H  0.81940948  0.03923554  0.39315635     0.18000
F1020       F  0.76499815  0.04179134  0.33625878    -0.19760
C1021       C  0.20215941  0.85643916  0.47511868    -0.21200
C1022       C  0.19288311  0.82362664  0.44961364    -0.09240
C1023       C  0.15305480  0.81919952  0.43540783     0.29620
C1024       C  0.12261235  0.84357959  0.45098034    -0.21200
C1025       C  0.13174982  0.87354811  0.47955284    -0.09250
C1026       C  0.17199328  0.88083618  0.49029102     0.29620
F1027       F  0.18208829  0.91009007  0.51726802    -0.19780
H1028       H  0.23230856  0.86129820  0.48670862     0.17990
H1029       H  0.09187437  0.83895683  0.44089056     0.18000
F1030       F  0.14325751  0.78976547  0.40855943    -0.19760
C1031       C  0.83891776  0.87264683  0.44029553    -0.21200
C1032       C  0.87136432  0.86304502  0.46599702    -0.09240
C1033       C  0.87947116  0.82252535  0.47489233     0.29620
C1034       C  0.85300872  0.79285939  0.46226359    -0.21200
C1035       C  0.81724614  0.80282560  0.44135713    -0.09250
C1036       C  0.81234010  0.84259267  0.42734919     0.29620
F1037       F  0.78027947  0.85289479  0.40384642    -0.19780
H1038       H  0.83358358  0.90349025  0.43103905     0.17990
H1039       H  0.85868066  0.76274854  0.47332600     0.18000
F1040       F  0.91113809  0.81158954  0.49868363    -0.19760
C1041       C  0.79216539  0.14619283  0.54737876    -0.21200
C1042       C  0.80507724  0.18218552  0.56624107    -0.09240
C1043       C  0.84518024  0.18459355  0.58014686     0.29620
C1044       C  0.87311154  0.15566153  0.56793419    -0.21200
C1045       C  0.86094044  0.12335060  0.54319797    -0.09250
C1046       C  0.81981043  0.11727775  0.53552747     0.29620
F1047       F  0.80652059  0.08551991  0.51319676    -0.19780
H1048       H  0.76148276  0.14213093  0.53691627     0.17990
H1049       H  0.90448342  0.15934815  0.57654445     0.18000
F1050       F  0.85806407  0.21663553  0.60226495    -0.19760
C1051       C  0.15160656  0.19791506  0.50511094    -0.21200
C1052       C  0.18235219  0.19024950  0.47703134    -0.09240
C1053       C  0.18318345  0.15374680  0.45572086     0.29620
C1054       C  0.15414035  0.12478155  0.46346706    -0.21200
C1055       C  0.12401092  0.13240464  0.49202842    -0.09250
C1056       C  0.12232583  0.16927116  0.51236635     0.29620
F1057       F  0.09362887  0.17673402  0.54053756    -0.19780
H1058       H  0.15121447  0.22544680  0.52276878     0.17990
H1059       H  0.15500654  0.09646610  0.44710447     0.18000
F1060       F  0.21224967  0.14600563  0.42804418    -0.19760
C1061       C  0.02023648  0.67541617  0.19433911    -0.21200
C1062       C  0.99370525  0.70785061  0.18655686    -0.09240
C1063       C  0.97061955  0.70688867  0.15097578     0.29620
C1064       C  0.97224749  0.67339066  0.12520397    -0.21200
C1065       C  0.99624045  0.63949849  0.13460552    -0.09250
C1066       C  0.02122025  0.64134099  0.16894874     0.29620
F1067       F  0.04616286  0.61020648  0.17818807    -0.19780
H1068       H  0.03784339  0.67507656  0.22196419     0.17990
H1069       H  0.95317099  0.67319615  0.09854590     0.18000
F1070       F  0.94375171  0.73676873  0.14303886    -0.19760
C1071       C  0.97246575  0.85218279  0.29737715    -0.21200
C1072       C  0.99784426  0.81840422  0.29620583    -0.09240
C1073       C  0.02615882  0.81323232  0.32778867     0.29620
C1074       C  0.02671698  0.83960794  0.36112326    -0.21200
C1075       C  0.99944791  0.87192267  0.36336337    -0.09250
C1076       C  0.97311991  0.87852378  0.33046000     0.29620
F1077       F  0.94538704  0.90849094  0.33189872    -0.19780
H1078       H  0.94914957  0.85583952  0.27461210     0.17990
H1079       H  0.04772841  0.83416200  0.38556914     0.18000
F1080       F  0.05032935  0.78019163  0.32834738    -0.19760
C1081       C  0.98725844  0.29317760  0.85612776    -0.21200
C1082       C  0.00948347  0.29356836  0.82043779    -0.09240
C1083       C  0.03559744  0.32658731  0.81367164     0.29620
C1084       C  0.03519437  0.36059628  0.83926088    -0.21200
C1085       C  0.01039681  0.36144897  0.87340775    -0.09250
C1086       C  0.98832331  0.32608653  0.88268867     0.29620
F1087       F  0.96577991  0.32393090  0.91659183    -0.19780
H1088       H  0.96643803  0.26874162  0.86189029     0.17990
H1089       H  0.05403310  0.38624813  0.83224551     0.18000
F1090       F  0.05915741  0.32721584  0.78036377    -0.19760
C1091       C  0.96918211  0.14987678  0.71063794    -0.21200
C1092       C  0.99970166  0.17905765  0.71412189    -0.09240
C1093       C  0.03040776  0.17937511  0.68478051     0.29620
C1094       C  0.02852591  0.15352688  0.65108500    -0.21200
C1095       C  0.99644133  0.12630276  0.64640465    -0.09250
C1096       C  0.96764384  0.12362335  0.67740359     0.29620
F1097       F  0.93628311  0.09750064  0.67409560    -0.19780
H1098       H  0.94430254  0.15000719  0.73170852     0.17990
H1099       H  0.05174923  0.15526230  0.62828682     0.18000
F1100       F  0.05985485  0.20771915  0.68655952    -0.19760
C1101       C  0.97849417  0.70344043  0.84464202    -0.21200
C1102       C  0.01678705  0.71650696  0.83224629    -0.09240
C1103       C  0.05089810  0.69609452  0.84792903     0.29620
C1104       C  0.04660640  0.66051805  0.87030887    -0.21200
C1105       C  0.00829675  0.64526332  0.87929468    -0.09250
C1106       C  0.97437549  0.66897396  0.86905199     0.29620
F1107       F  0.93719874  0.65863159  0.88215935    -0.19780
H1108       H  0.95165187  0.71814977  0.83305956     0.17990
H1109       H  0.07337365  0.64465494  0.88043311     0.18000
F1110       F  0.08851133  0.70781653  0.83703467    -0.19760
C1111       C  0.03524272  0.85248878  0.70828414    -0.21200
C1112       C  0.00453035  0.82526304  0.71844198    -0.09240
C1113       C  0.96997097  0.82382319  0.69314794     0.29620
C1114       C  0.96823631  0.84590974  0.65687724    -0.21200
C1115       C  0.00054026  0.87055230  0.64537149    -0.09250
C1116       C  0.03316994  0.87505666  0.67252591     0.29620
F1117       F  0.06406687  0.90022101  0.66352455    -0.19780
H1118       H  0.06272947  0.85341687  0.72611920     0.17990
H1119       H  0.94177584  0.84356390  0.63768104     0.18000
F1120       F  0.93977283  0.79757420  0.70141400    -0.19760
C1121       C  0.13358249  0.67512018  0.52901340    -0.21200
C1122       C  0.13857779  0.63736356  0.51044609    -0.09240
C1123       C  0.17686160  0.62819700  0.49379844     0.29620
C1124       C  0.20787975  0.65698936  0.49326124    -0.21200
C1125       C  0.20202280  0.69552357  0.50951762    -0.09250
C1126       C  0.16494342  0.70372065  0.52887725     0.29620
F1127       F  0.15775559  0.74098601  0.54425244    -0.19780
H1128       H  0.10504556  0.68291884  0.54276462     0.17990
H1129       H  0.23532283  0.65028918  0.47693854     0.18000
F1130       F  0.18361022  0.59232654  0.47520205    -0.19760
C1131       C  0.80125123  0.34584340  0.50142356    -0.21200
C1132       C  0.80994023  0.30591492  0.49108332    -0.09240
C1133       C  0.84862604  0.29671490  0.47600924     0.29620
C1134       C  0.87888123  0.32628541  0.47464043    -0.21200
C1135       C  0.87115579  0.36576055  0.48797645    -0.09250
C1136       C  0.83124838  0.37549614  0.49995207     0.29620
F1137       F  0.82157749  0.41298908  0.51328177    -0.19780
H1138       H  0.77212714  0.35342096  0.51407269     0.17990
H1139       H  0.90876057  0.31786485  0.46457177     0.18000
F1140       F  0.85804646  0.25820735  0.46581730    -0.19760
C1141       C  0.18994481  0.32605604  0.53470470    -0.21200
C1142       C  0.21793480  0.32604986  0.50267677    -0.09240
C1143       C  0.21312334  0.35521316  0.47229357     0.29620
C1144       C  0.17970474  0.38138588  0.47244887    -0.21200
C1145       C  0.14967703  0.37835118  0.50219361    -0.09250
C1146       C  0.15586917  0.35135454  0.53417552     0.29620
F1147       F  0.12849578  0.34872604  0.56436611    -0.19780
H1148       H  0.19202506  0.30310441  0.55782336     0.17990
H1149       H  0.17606606  0.40261824  0.44794746     0.18000
F1150       F  0.23831163  0.35540846  0.44014956    -0.19760
C1151       C  0.79186726  0.64498527  0.48763991    -0.21200
C1152       C  0.79508775  0.68303992  0.50579308    -0.09240
C1153       C  0.83019379  0.69183820  0.52846410     0.29620
C1154       C  0.86240439  0.66425128  0.53037227    -0.21200
C1155       C  0.86007299  0.62693610  0.51034149    -0.09250
C1156       C  0.82361741  0.61706563  0.49014622     0.29620
F1157       F  0.81970616  0.58164917  0.46989847    -0.19780
H1158       H  0.76599663  0.63807652  0.46873113     0.17990
H1159       H  0.88965389  0.67259317  0.54653223     0.18000
F1160       F  0.83489102  0.72881859  0.54546211    -0.19760
C1161       C  0.14078804  0.53681378  0.33548501    -0.21200
C1162       C  0.14350439  0.51621670  0.37239197    -0.09240
C1163       C  0.18044970  0.49687917  0.38201266     0.29620
C1164       C  0.21207912  0.49528903  0.35410447    -0.21200
C1165       C  0.20835020  0.51343413  0.31613379    -0.09250
C1166       C  0.17303302  0.53596689  0.30792346     0.29620
F1167       F  0.16789015  0.55327778  0.27117395    -0.19780
H1168       H  0.11327569  0.55256339  0.32742528     0.17990
H1169       H  0.23807569  0.47656477  0.36071336     0.18000
F1170       F  0.18501353  0.47645419  0.41717943    -0.19760
C1171       C  0.80901028  0.54056060  0.34057549    -0.21200
C1172       C  0.78901116  0.50503281  0.32818543    -0.09240
C1173       C  0.80467192  0.46793961  0.34168998     0.29620
C1174       C  0.84065046  0.46655076  0.36463468    -0.21200
C1175       C  0.86240980  0.50195974  0.37350654    -0.09250
C1176       C  0.84533662  0.53909782  0.36252596     0.29620
F1177       F  0.86422089  0.57405800  0.37247521    -0.19780
H1178       H  0.79845143  0.56951487  0.32974448     0.17990
H1179       H  0.85205385  0.43767781  0.37477137     0.18000
F1180       F  0.78690136  0.43294049  0.33006085    -0.19760
C1181       C  0.16571517  0.53447837  0.63592914    -0.21200
C1182       C  0.14302384  0.49894331  0.63247445    -0.09240
C1183       C  0.15588944  0.46461683  0.65381077     0.29620
C1184       C  0.18934333  0.46686103  0.68021780    -0.21200
C1185       C  0.21075579  0.50319051  0.68530783    -0.09250
C1186       C  0.19885345  0.53678465  0.66224005     0.29620
F1187       F  0.21721294  0.57293667  0.66788113    -0.19780
H1188       H  0.15686034  0.56104110  0.61909248     0.17990
H1189       H  0.19693923  0.44099950  0.69863310     0.18000
F1190       F  0.13598237  0.42916181  0.64936251    -0.19760
C1191       C  0.82684026  0.50778306  0.61981833    -0.21200
C1192       C  0.86408121  0.49015445  0.63105812    -0.09240
C1193       C  0.86675070  0.47162218  0.66908173     0.29620
C1194       C  0.83402799  0.47339633  0.69594853    -0.21200
C1195       C  0.79826524  0.49454265  0.68608656    -0.09250
C1196       C  0.79459183  0.51035951  0.64701219     0.29620
F1197       F  0.76147389  0.53218862  0.63666621    -0.19780
H1198       H  0.82342550  0.52202112  0.59061595     0.17990
H1199       H  0.83827670  0.46184413  0.72618782     0.18000
F1200       F  0.90132608  0.45302753  0.68089253    -0.19760
C1201       C  0.98200906  0.66038871  0.30776046    -0.21200
C1202       C  0.95048740  0.68791432  0.31479978    -0.09240
C1203       C  0.93260944  0.68972080  0.35309270     0.29620
C1204       C  0.94688120  0.66481778  0.38388538    -0.21200
C1205       C  0.97895396  0.63818003  0.37648214    -0.09250
C1206       C  0.99627886  0.63599304  0.33821900     0.29620
F1207       F  0.02771280  0.61083735  0.33052223    -0.19780
H1208       H  0.99752162  0.65924924  0.27918122     0.17990
H1209       H  0.93253045  0.66577975  0.41317842     0.18000
F1210       F  0.90231598  0.71615027  0.36081287    -0.19760
C1211       C  0.00010868  0.33979295  0.69364148    -0.21200
C1212       C  0.96666795  0.31409552  0.68917907    -0.09240
C1213       C  0.94571406  0.31270889  0.65226852     0.29620
C1214       C  0.95828203  0.33699775  0.62050284    -0.21200
C1215       C  0.99164542  0.36251021  0.62569752    -0.09250
C1216       C  0.01255766  0.36372169  0.66227999     0.29620
F1217       F  0.04507399  0.38812314  0.66759922    -0.19780
H1218       H  0.01781784  0.34037712  0.72104736     0.17990
H1219       H  0.94132163  0.33692807  0.59243622     0.18000
F1220       F  0.91354593  0.28792311  0.64705157    -0.19760
C1221       C  0.05360698  0.65362253  0.69199986    -0.21200
C1222       C  0.02955992  0.68826882  0.69160219    -0.09240
C1223       C  0.99553441  0.69080612  0.66612805     0.29620
C1224       C  0.98645232  0.65931742  0.64052432    -0.21200
C1225       C  0.01056637  0.62493100  0.64078962    -0.09250
C1226       C  0.04404672  0.62174918  0.66664651     0.29620
F1227       F  0.06829700  0.58873676  0.66603355    -0.19780
H1228       H  0.07933276  0.65125528  0.71219264     0.17990
H1229       H  0.96069560  0.66172813  0.62033908     0.18000
F1230       F  0.97015428  0.72294169  0.66711251    -0.19760
C1231       C  0.01012983  0.32464414  0.12195359    -0.21200
C1232       C  0.98730358  0.35959092  0.13044672    -0.09240
C1233       C  0.96340465  0.35962207  0.16540152     0.29620
C1234       C  0.96443030  0.32663271  0.19214941    -0.21200
C1235       C  0.98976297  0.29306144  0.18518979    -0.09250
C1236       C  0.01177997  0.29213821  0.14906225     0.29620
F1237       F  0.03824522  0.26170301  0.14203790    -0.19780
H1238       H  0.02879892  0.32342801  0.09524165     0.17990
H1239       H  0.94829955  0.32897504  0.22040715     0.18000
F1240       F  0.93988790  0.39189504  0.17431751    -0.19760
C1241       C  0.96701468  0.18790931  0.32671633    -0.21200
C1242       C  0.99618542  0.18202408  0.29627523    -0.09240
C1243       C  0.02218322  0.14874971  0.30012141     0.29620
C1244       C  0.02034803  0.12354600  0.33404777    -0.21200
C1245       C  0.99321294  0.13100665  0.36587472    -0.09250
C1246       C  0.96575311  0.16306832  0.36131545     0.29620
F1247       F  0.93793907  0.17057450  0.39027083    -0.19780
H1248       H  0.94698069  0.21363242  0.32508953     0.17990
H1249       H  0.04160298  0.09888718  0.33627373     0.18000
F1250       F  0.05182860  0.14268806  0.27265660    -0.19760
C1251       C  0.06505765  0.34726753  0.31145543    -0.21200
C1252       C  0.04258341  0.31153800  0.31398628    -0.09240
C1253       C  0.01052939  0.30890458  0.34168269     0.29620
C1254       C  0.00150520  0.34098621  0.36633098    -0.21200
C1255       C  0.02364976  0.37643942  0.36374633    -0.09250
C1256       C  0.05560254  0.37984057  0.33638574     0.29620
F1257       F  0.07799733  0.41400814  0.33455773    -0.19780
H1258       H  0.08895091  0.35017699  0.28948610     0.17990
H1259       H  0.97680901  0.33825368  0.38749143     0.18000
F1260       F  0.98587998  0.27640645  0.34329302    -0.19760
loop_ 
_geom_bond_atom_site_label_1 
_geom_bond_atom_site_label_2 
_geom_bond_distance 
_geom_bond_site_symmetry_2 
_ccdc_geom_bond_type 
C1            C2   1.395       .  A
C1            C6   1.431   1_455  A
C1         C1235   1.494   1_455  S
C2            C3   1.386       .  A
C2            H7   1.086       .  S
C3            C4   1.390       .  A
C3         C1252   1.462       .  S
C4            C5   1.398       .  A
C4            H8   1.086       .  S
C5            C6   1.432   1_455  A
C5         C1242   1.498   1_455  S
C6            H9   1.082       .  S
O10         Zr46   2.394       .  S
O10          C21   1.286       .  A
O11         Zr45   2.420   1_655  S
O11          C22   1.289       .  A
O12         Zr18   2.519   1_655  S
O12          C23   1.308       .  A
O13         Zr18   2.505       .  S
O13          C24   1.305       .  A
O14         Zr48   2.414       .  S
O14          C24   1.286       .  A
O15         Zr47   2.398       .  S
O15          C23   1.282       .  A
O16         Zr18   2.399   1_655  S
O16          C22   1.287       .  A
O17         Zr18   2.416       .  S
O17          C21   1.288       .  A
Zr18         O19   2.351       .  S
Zr18         O20   2.344   1_455  S
Zr18         O28   2.348       .  S
Zr18         O26   2.345   1_455  S
O19         Zr45   2.347       .  S
O19         Zr48   2.341       .  S
O20         Zr46   2.346   1_655  S
O20         Zr47   2.341       .  S
C21        C1255   1.440       .  S
C22        C1205   1.448       .  S
C23        C1175   1.486       .  S
C24        C1162   1.501       .  S
H25          O26   0.965       .  S
O26         Zr45   2.343   1_655  S
O26         Zr47   2.321       .  S
H27          O28   0.965       .  S
O28         Zr46   2.343       .  S
O28         Zr48   2.323       .  S
O29         Zr45   2.395       .  S
O29          C52   1.286       .  A
O30         Zr46   2.408       .  S
O30          C53   1.286   1_455  A
O31         Zr47   2.425       .  S
O31          C54   1.288       .  A
O32         Zr48   2.411       .  S
O32          C55   1.286       .  A
O33         Zr48   2.414       .  S
O33          C56   1.286       .  A
O34         Zr47   2.411       .  S
O34          C57   1.286       .  A
O35         Zr49   2.505   1_655  S
O35          C58   1.305       .  A
O36         Zr49   2.495       .  S
O36          C59   1.302       .  A
O37         Zr47   2.412       .  S
O37          C58   1.286       .  A
O38         Zr48   2.414       .  S
O38          C59   1.286       .  A
O39         Zr45   2.489   1_655  S
O39          C54   1.302       .  A
O40         Zr46   2.491   1_655  S
O40          C57   1.302       .  A
O41         Zr46   2.503       .  S
O41          C56   1.304       .  A
O42         Zr45   2.507       .  S
O42          C55   1.305       .  A
O43         Zr49   2.394       .  S
O43          C52   1.285       .  A
O44         Zr49   2.397       .  S
O44          C53   1.287   1_455  A
Zr45         O51   2.349   1_455  S
Zr45         O63   2.343       .  S
Zr46         O50   2.339       .  S
Zr46         O61   2.342   1_455  S
Zr47         O51   2.332       .  S
Zr47         O61   2.319       .  S
Zr48         O50   2.340       .  S
Zr48         O63   2.322       .  S
Zr49         O50   2.340       .  S
Zr49         O51   2.346   1_455  S
Zr49         O63   2.348       .  S
Zr49         O61   2.334   1_455  S
C52        C1225   1.430       .  S
C53        C1215   1.439       .  S
C54        C1155   1.498       .  S
C55        C1122   1.502       .  S
C56        C1145   1.490       .  S
C57        C1135   1.499       .  S
C58        C1192   1.500       .  S
C59        C1182   1.484       .  S
H60          O61   0.965       .  S
H62          O63   0.965       .  S
C64          C65   1.393       .  A
C64          C69   1.433       .  A
C64        C1102   1.492       .  S
C65          C66   1.379       .  A
C65          H70   1.086       .  S
C66          C67   1.379       .  A
C66        C1222   1.446       .  S
C67          C68   1.391       .  A
C67          H71   1.087       .  S
C68          C69   1.433       .  A
C68        C1112   1.489       .  S
C69          H72   1.082   1_455  S
C73          C74   1.396       .  A
C73          C78   1.425   1_655  A
C73        C1082   1.489   1_655  S
C74          C75   1.389       .  A
C74          H79   1.086       .  S
C75          C76   1.386       .  A
C75        C1212   1.463       .  S
C76          C77   1.396       .  A
C76          H80   1.086       .  S
C77          C78   1.426   1_655  A
C77        C1092   1.485       .  S
C78          H81   1.082       .  S
C82          C83   1.398       .  A
C82          C87   1.423       .  A
C82        C1062   1.485       .  S
C83          C84   1.391       .  A
C83          H88   1.086       .  S
C84          C85   1.388       .  A
C84        C1202   1.467       .  S
C85          C86   1.396       .  A
C85          H89   1.085       .  S
C86          C87   1.422       .  A
C86        C1072   1.482       .  S
C87          H90   1.082   1_655  S
O91        Zr127   2.521       .  S
O91         C102   1.308       .  A
O92        Zr126   2.495   1_455  S
O92         C103   1.303   1_455  A
O93         Zr99   2.413   1_455  S
O93         C104   1.286       .  A
O94         Zr99   2.400       .  S
O94         C105   1.283       .  A
O95        Zr129   2.501   1_545  S
O95         C105   1.305       .  A
O96        Zr128   2.497   1_565  S
O96         C104   1.304   1_565  A
O97         Zr99   2.420   1_565  S
O97         C103   1.288       .  A
O98         Zr99   2.412       .  S
O98         C102   1.286       .  A
Zr99        O100   2.324   1_545  S
Zr99        O101   2.323   1_655  S
Zr99        O109   2.343       .  S
Zr99        O107   2.325   1_645  S
O100       Zr126   2.349       .  S
O100       Zr129   2.334       .  S
O101       Zr127   2.339   1_455  S
O101       Zr128   2.346       .  S
C102       C1245   1.503       .  S
C103       C1075   1.491       .  S
C104       C1002   1.496   1_545  S
C105       C1015   1.495       .  S
H106        O107   0.964       .  S
O107       Zr126   2.337   1_455  S
O107       Zr128   2.328   1_565  S
H108        O109   0.965       .  S
O109       Zr127   2.347       .  S
O109       Zr129   2.357   1_545  S
O110       Zr126   2.524       .  S
O110        C133   1.309       .  A
O111       Zr127   2.495       .  S
O111        C134   1.303       .  A
O112       Zr128   2.398   1_565  S
O112        C135   1.286       .  A
O113       Zr129   2.434       .  S
O113        C136   1.292       .  A
O114       Zr129   2.417   1_545  S
O114        C137   1.290       .  A
O115       Zr128   2.396       .  S
O115        C138   1.286       .  A
O116       Zr130   2.407   1_455  S
O116        C139   1.284       .  A
O117       Zr130   2.419       .  S
O117        C140   1.288       .  A
O118       Zr128   2.502   1_565  S
O118        C139   1.304       .  A
O119       Zr129   2.497       .  S
O119        C140   1.304       .  A
O120       Zr126   2.427   1_455  S
O120        C135   1.291       .  A
O121       Zr127   2.408   1_455  S
O121        C138   1.288       .  A
O122       Zr127   2.418       .  S
O122        C137   1.290       .  A
O123       Zr126   2.400       .  S
O123        C136   1.287       .  A
O124       Zr130   2.391       .  S
O124        C133   1.281       .  A
O125       Zr130   2.417   1_545  S
O125        C134   1.286       .  A
Zr126       O132   2.341   1_655  S
Zr126       O144   2.350       .  S
Zr127       O131   2.338       .  S
Zr127       O142   2.351   1_655  S
Zr128       O132   2.342   1_545  S
Zr128       O142   2.339       .  S
Zr129       O131   2.338   1_565  S
Zr129       O144   2.359       .  S
Zr130       O131   2.313   1_565  S
Zr130       O132   2.341   1_655  S
Zr130       O144   2.348       .  S
Zr130       O142   2.340   1_665  S
C133       C1115   1.489   1_655  S
C134       C1095   1.487       .  S
C135       C1025   1.457       .  S
C136       C1032   1.465       .  S
C137       C1045   1.463       .  S
C138       C1055   1.441       .  S
C139        C995   1.483       .  S
C140        C982   1.504       .  S
H141        O142   0.966       .  S
H143        O144   0.966       .  S
C145        C146   1.429       .  A
C145        C150   1.392       .  A
C145       C1142   1.489       .  S
C146        C147   1.430       .  A
C146        H151   1.082       .  S
C147        C148   1.394       .  A
C147        C972   1.489       .  S
C148        C149   1.387       .  A
C148        H152   1.085       .  S
C149        C150   1.383       .  A
C149       C1052   1.457       .  S
C150        H153   1.087       .  S
C154        C155   1.399       .  A
C154        C159   1.418       .  A
C154       C1132   1.486       .  S
C155        C156   1.399       .  A
C155        H160   1.082       .  S
C156        C157   1.394       .  A
C156       C1042   1.483       .  S
C157        C158   1.398       .  A
C157        H161   1.086       .  S
C158        C159   1.418       .  A
C158        C962   1.482       .  S
C159        H162   1.083       .  S
C163        C164   1.420       .  A
C163        C168   1.397       .  A
C163        C952   1.486       .  S
C164        C165   1.421       .  A
C164        H169   1.082       .  S
C165        C166   1.400       .  A
C165       C1152   1.487       .  S
C166        C167   1.396       .  A
C166        H170   1.086       .  S
C167        C168   1.396       .  A
C167       C1035   1.483       .  S
C168        H171   1.083       .  S
C172        C173   1.426       .  A
C172        C177   1.399       .  A
C172        C942   1.492       .  S
C173        C174   1.425       .  A
C173        H178   1.082       .  S
C174        C175   1.396       .  A
C174       C1125   1.493       .  S
C175        C176   1.393       .  A
C175        H179   1.083       .  S
C176        C177   1.393       .  A
C176       C1022   1.478       .  S
C177        H180   1.086       .  S
C181        C182   1.415   1_565  A
C181        C186   1.399       .  A
C181        C922   1.481   1_565  S
C182        C183   1.415   1_545  A
C182        H187   1.083       .  S
C183        C184   1.399       .  A
C183       C1012   1.479   1_565  S
C184        C185   1.393       .  A
C184        H188   1.083       .  S
C185        C186   1.401       .  A
C185        C932   1.493       .  S
C186        H189   1.082       .  S
O190       Zr226   2.502       .  S
O190        C201   1.303       .  A
O191       Zr225   2.498       .  S
O191        C202   1.303       .  A
O192       Zr198   2.418       .  S
O192        C203   1.286       .  A
O193       Zr198   2.400       .  S
O193        C204   1.284       .  A
O194       Zr228   2.515   1_545  S
O194        C204   1.307       .  A
O195       Zr227   2.506       .  S
O195        C203   1.305       .  A
O196       Zr198   2.401       .  S
O196        C202   1.284       .  A
O197       Zr198   2.415       .  S
O197        C201   1.285       .  A
Zr198       O199   2.347       .  S
Zr198       O200   2.331       .  S
Zr198       O208   2.311       .  S
Zr198       O206   2.310       .  S
O199       Zr225   2.353       .  S
O199       Zr228   2.356   1_545  S
O200       Zr226   2.341       .  S
O200       Zr227   2.352       .  S
C201        C975   1.489       .  S
C202        C965   1.494       .  S
C203        C875   1.488       .  S
C204        C852   1.498       .  S
H205        O206   0.964       .  S
O206       Zr225   2.337       .  S
O206       Zr227   2.346       .  S
H207        O208   0.964       .  S
O208       Zr226   2.337       .  S
O208       Zr228   2.350   1_545  S
O209       Zr225   2.490   1_565  S
O209        C232   1.303       .  A
O210       Zr226   2.499   1_565  S
O210        C233   1.303       .  A
O211       Zr227   2.420       .  S
O211        C234   1.290       .  A
O212       Zr228   2.427       .  S
O212        C235   1.292       .  A
O213       Zr228   2.413   1_545  S
O213        C236   1.288       .  A
O214       Zr227   2.409       .  S
O214        C237   1.288       .  A
O215       Zr229   2.381       .  S
O215        C238   1.280       .  A
O216       Zr229   2.406       .  S
O216        C239   1.283       .  A
O217       Zr227   2.531   1_565  S
O217        C238   1.310       .  A
O218       Zr228   2.518       .  S
O218        C239   1.307       .  A
O219       Zr225   2.431       .  S
O219        C234   1.293       .  A
O220       Zr226   2.389       .  S
O220        C237   1.285       .  A
O221       Zr226   2.410       .  S
O221        C236   1.288       .  A
O222       Zr225   2.417   1_565  S
O222        C235   1.291       .  A
O223       Zr229   2.416       .  S
O223        C232   1.287       .  A
O224       Zr229   2.422       .  S
O224        C233   1.287       .  A
Zr225       O231   2.351   1_545  S
Zr225       O243   2.348   1_545  S
Zr226       O230   2.348   1_545  S
Zr226       O241   2.347   1_545  S
Zr227       O231   2.342   1_545  S
Zr227       O241   2.351   1_545  S
Zr228       O230   2.354       .  S
Zr228       O243   2.342       .  S
Zr229       O230   2.338       .  S
Zr229       O231   2.347       .  S
Zr229       O243   2.312       .  S
Zr229       O241   2.324       .  S
C232        C955   1.497       .  S
C233        C945   1.500       .  S
C234        C902   1.471       .  S
C235        C935   1.466       .  S
C236        C895   1.432       .  S
C237        C912   1.436       .  S
C238        C882   1.493       .  S
C239        C862   1.490       .  S
H240        O241   0.966       .  S
H242        O243   0.964       .  S
C244        C245   1.428       .  A
C244        C249   1.392       .  A
C244        C842   1.485       .  S
C245        C246   1.428       .  A
C245        H250   1.082   1_545  S
C246        C247   1.393       .  A
C246        C992   1.485   1_545  S
C247        C248   1.382       .  A
C247        H251   1.086       .  S
C248        C249   1.381       .  A
C248        C915   1.451       .  S
C249        H252   1.086       .  S
C253        C254   1.400       .  A
C253        C258   1.421   1_545  A
C253        C832   1.491       .  S
C254        C255   1.403       .  A
C254        H259   1.081       .  S
C255        C256   1.395       .  A
C255        C905   1.503       .  S
C256        C257   1.399       .  A
C256        H260   1.081       .  S
C257        C258   1.421   1_545  A
C257        C985   1.488   1_545  S
C258        H261   1.082       .  S
C262        C263   1.427       .  A
C262        C267   1.397       .  A
C262        C825   1.487       .  S
C263        C264   1.427       .  A
C263        H268   1.082   1_545  S
C264        C265   1.399       .  A
C264       C1005   1.490       .  S
C265        C266   1.387       .  A
C265        H269   1.086       .  S
C266        C267   1.384       .  A
C266        C892   1.453       .  S
C267        H270   1.087       .  S
O271       Zr307   2.471       .  S
O271        C282   1.299       .  A
O272       Zr306   2.493       .  S
O272        C283   1.303   1_545  A
O273       Zr279   2.408   1_565  S
O273        C284   1.286   1_554  A
O274       Zr279   2.413       .  S
O274        C285   1.287       .  A
O275       Zr309   2.520       .  S
O275        C285   1.308       .  A
O276       Zr308   2.522   1_556  S
O276        C284   1.308       .  A
O277       Zr279   2.425   1_566  S
O277        C283   1.289       .  A
O278       Zr279   2.431       .  S
O278        C282   1.290       .  A
Zr279       O280   2.338   1_554  S
Zr279       O281   2.337   1_545  S
Zr279       O289   2.322       .  S
Zr279       O287   2.334   1_544  S
O280       Zr306   2.345       .  S
O280       Zr309   2.354   1_556  S
O281       Zr307   2.354   1_565  S
O281       Zr308   2.349       .  S
C282        C925   1.490       .  S
C283        C835   1.504       .  S
C284        C762   1.504       .  S
C285        C742   1.503       .  S
H286        O287   0.966       .  S
O287       Zr306   2.343   1_565  S
O287       Zr308   2.342   1_556  S
H288        O289   0.964       .  S
O289       Zr307   2.334       .  S
O289       Zr309   2.328       .  S
O290       Zr306   2.498       .  S
O290        C313   1.303       .  A
O291       Zr307   2.505       .  S
O291        C314   1.305       .  A
O292       Zr308   2.397   1_556  S
O292        C315   1.285       .  A
O293       Zr309   2.395   1_556  S
O293        C316   1.286       .  A
O294       Zr309   2.402       .  S
O294        C317   1.286       .  A
O295       Zr308   2.388       .  S
O295        C318   1.284       .  A
O296       Zr310   2.394   1_565  S
O296        C319   1.281       .  A
O297       Zr310   2.383       .  S
O297        C320   1.279       .  A
O298       Zr308   2.517       .  S
O298        C319   1.307       .  A
O299       Zr309   2.520       .  S
O299        C320   1.308       .  A
O300       Zr306   2.392   1_565  S
O300        C315   1.285       .  A
O301       Zr307   2.391   1_565  S
O301        C318   1.285       .  A
O302       Zr307   2.410       .  S
O302        C317   1.286       .  A
O303       Zr306   2.396       .  S
O303        C316   1.286       .  A
O304       Zr310   2.407   1_556  S
O304        C313   1.283       .  A
O305       Zr310   2.396       .  S
O305        C314   1.282       .  A
Zr306       O312   2.334   1_545  S
Zr306       O324   2.339       .  S
Zr307       O311   2.340       .  S
Zr307       O322   2.338   1_545  S
Zr308       O312   2.337   1_554  S
Zr308       O322   2.347       .  S
Zr309       O311   2.350       .  S
Zr309       O324   2.344   1_554  S
Zr310       O311   2.339       .  S
Zr310       O312   2.323   1_544  S
Zr310       O324   2.326   1_554  S
Zr310       O322   2.322   1_545  S
C313        C845   1.482       .  S
C314        C822   1.494       .  S
C315        C792   1.430       .  S
C316        C782   1.432       .  S
C317        C812   1.431       .  S
C318        C802   1.428       .  S
C319        C755   1.485       .  S
C320        C775   1.483       .  S
H321        O322   0.966       .  S
H323        O324   0.966       .  S
C325        C326   1.397       .  A
C325        C330   1.429       .  A
C325        C855   1.489       .  S
C326        C327   1.384       .  A
C326        H331   1.086       .  S
C327        C328   1.387       .  A
C327        C815   1.455       .  S
C328        C329   1.399       .  A
C328        H332   1.086       .  S
C329        C330   1.429       .  A
C329        C735   1.490       .  S
C330        H333   1.082       .  S
C334        C335   1.389       .  A
C334        C339   1.435       .  A
C334        C865   1.491       .  S
C335        C336   1.377       .  A
C335        H340   1.087       .  S
C336        C337   1.378       .  A
C336        C805   1.440       .  S
C337        C338   1.390       .  A
C337        H341   1.087       .  S
C338        C339   1.435       .  A
C338        C722   1.491       .  S
C339        H342   1.082       .  S
C343        C344   1.392       .  A
C343        C348   1.431       .  A
C343        C885   1.489       .  S
C344        C345   1.379       .  A
C344        H349   1.087       .  S
C345        C346   1.382       .  A
C345        C795   1.447       .  S
C346        C347   1.395       .  A
C346        H350   1.086       .  S
C347        C348   1.432       .  A
C347        C712   1.491       .  S
C348        H351   1.082       .  S
C352        C353   1.393       .  A
C352        C357   1.434       .  A
C352        C872   1.493       .  S
C353        C354   1.381       .  A
C353        H358   1.086       .  S
C354        C355   1.377       .  A
C354        C785   1.444       .  S
C355        C356   1.389       .  A
C355        H359   1.087       .  S
C356        C357   1.433       .  A
C356        C702   1.490       .  S
C357        H360   1.082       .  S
O361       Zr397   2.506       .  S
O361        C372   1.305       .  A
O362       Zr396   2.525       .  S
O362        C373   1.309       .  A
O363       Zr369   2.420   1_556  S
O363        C374   1.286       .  A
O364       Zr369   2.399   1_455  S
O364        C375   1.282       .  A
O365       Zr399   2.509       .  S
O365        C375   1.306       .  A
O366       Zr398   2.502       .  S
O366        C374   1.303       .  A
O367       Zr369   2.388   1_456  S
O367        C373   1.281       .  A
O368       Zr369   2.423       .  S
O368        C372   1.288       .  A
Zr369       O370   2.348   1_654  S
Zr369       O371   2.321       .  S
Zr369       O379   2.315   1_655  S
Zr369       O377   2.335   1_554  S
O370       Zr396   2.342       .  S
O370       Zr399   2.353   1_556  S
O371       Zr397   2.351       .  S
O371       Zr398   2.343   1_554  S
C372       C1232   1.503       .  S
C373       C1085   1.500       .  S
C374        C632   1.493       .  S
C375        C655   1.480       .  S
H376        O377   0.966       .  S
O377       Zr396   2.363   1_655  S
O377       Zr398   2.349       .  S
H378        O379   0.964       .  S
O379       Zr397   2.331   1_455  S
O379       Zr399   2.342       .  S
O380       Zr396   2.525       .  S
O380        C403   1.309       .  A
O381       Zr397   2.505       .  S
O381        C404   1.305       .  A
O382       Zr398   2.417       .  S
O382        C405   1.289       .  A
O383       Zr399   2.414   1_556  S
O383        C406   1.289       .  A
O384       Zr399   2.419       .  S
O384        C407   1.290       .  A
O385       Zr398   2.400   1_554  S
O385        C408   1.286       .  A
O386       Zr400   2.424   1_556  S
O386        C409   1.288       .  A
O387       Zr400   2.395   1_455  S
O387        C410   1.282       .  A
O388       Zr398   2.496       .  S
O388        C409   1.303       .  A
O389       Zr399   2.524       .  S
O389        C410   1.309       .  A
O390       Zr396   2.393   1_655  S
O390        C405   1.284       .  A
O391       Zr397   2.391       .  S
O391        C408   1.286       .  A
O392       Zr397   2.420   1_455  S
O392        C407   1.291       .  A
O393       Zr396   2.409       .  S
O393        C406   1.288       .  A
O394       Zr400   2.397   1_456  S
O394        C403   1.281       .  A
O395       Zr400   2.397       .  S
O395        C404   1.283       .  A
Zr396       O402   2.341   1_455  S
Zr396       O414   2.339       .  S
Zr397       O401   2.344   1_655  S
Zr397       O412   2.355       .  S
Zr398       O402   2.335       .  S
Zr398       O412   2.356   1_556  S
Zr399       O401   2.351       .  S
Zr399       O414   2.342   1_554  S
Zr400       O401   2.348   1_655  S
Zr400       O402   2.319   1_554  S
Zr400       O414   2.325   1_654  S
Zr400       O412   2.314       .  S
C403       C1105   1.489       .  S
C404       C1065   1.491       .  S
C405        C665   1.432       .  S
C406        C672   1.448       .  S
C407        C682   1.459       .  S
C408        C692   1.428       .  S
C409        C625   1.506       .  S
C410        C642   1.489       .  S
H411        O412   0.965       .  S
H413        O414   0.965       .  S
C415        C416   1.393       .  A
C415        C420   1.433       .  A
C415       C1172   1.492       .  S
C416        C417   1.382       .  A
C416        H421   1.086       .  S
C417        C418   1.375       .  A
C417        C695   1.445       .  S
C418        C419   1.389       .  A
C418        H422   1.087       .  S
C419        C420   1.432       .  A
C419        C612   1.487       .  S
C420        H423   1.082       .  S
C424        C425   1.424       .  A
C424        C429   1.398       .  A
C424       C1165   1.489       .  S
C425        C426   1.424       .  A
C425        H430   1.082       .  S
C426        C427   1.399       .  A
C426        C602   1.495       .  S
C427        C428   1.400       .  A
C427        H431   1.083       .  S
C428        C429   1.390       .  A
C428        C685   1.485       .  S
C429        H432   1.084       .  S
C433        C434   1.396       .  A
C433        C438   1.425       .  A
C433       C1185   1.487       .  S
C434        C435   1.392       .  A
C434        H439   1.085       .  S
C435        C436   1.384       .  A
C435        C675   1.465       .  S
C436        C437   1.395       .  A
C436        H440   1.086       .  S
C437        C438   1.424       .  A
C437        C592   1.485       .  S
C438        H441   1.082       .  S
C442        C443   1.398       .  A
C442        C447   1.430       .  A
C442       C1195   1.490       .  S
C443        C444   1.383       .  A
C443        H448   1.086       .  S
C444        C445   1.386       .  A
C444        C662   1.456       .  S
C445        C446   1.399       .  A
C445        H449   1.086       .  S
C446        C447   1.430       .  A
C446        C582   1.493       .  S
C447        H450   1.082       .  S
C451        C452   1.429       .  A
C451        C456   1.392   1_554  A
C451        C652   1.484       .  S
C452        C453   1.428       .  A
C452        H457   1.082       .  S
C453        C454   1.389   1_554  A
C453        C772   1.483       .  S
C454        C455   1.378       .  A
C454        H458   1.087       .  S
C455        C456   1.380       .  A
C455        C572   1.446       .  S
C456        H459   1.086       .  S
O460       Zr496   2.510   1_554  S
O460        C471   1.306       .  A
O461       Zr495   2.517       .  S
O461        C472   1.307       .  A
O462       Zr468   2.400       .  S
O462        C473   1.283       .  A
O463       Zr468   2.415       .  S
O463        C474   1.286       .  A
O464       Zr498   2.502   1_554  S
O464        C474   1.304       .  A
O465       Zr497   2.518       .  S
O465        C473   1.308       .  A
O466       Zr468   2.406       .  S
O466        C472   1.283       .  A
O467       Zr468   2.398       .  S
O467        C471   1.283       .  A
Zr468       O469   2.324       .  S
Zr468       O470   2.342       .  S
Zr468       O478   2.325       .  S
Zr468       O476   2.321       .  S
O469       Zr495   2.343       .  S
O469       Zr498   2.340   1_554  S
O470       Zr496   2.344   1_554  S
O470       Zr497   2.356       .  S
C471        C732   1.496       .  S
C472        C725   1.490       .  S
C473        C615   1.488       .  S
C474        C605   1.507       .  S
H475        O476   0.965       .  S
O476       Zr495   2.338       .  S
O476       Zr497   2.342       .  S
H477        O478   0.966       .  S
O478       Zr496   2.347   1_554  S
O478       Zr498   2.344   1_554  S
O479       Zr495   2.513   1_556  S
O479        C502   1.305       .  A
O480       Zr496   2.517       .  S
O480        C503   1.307       .  A
O481       Zr497   2.437       .  S
O481        C504   1.293       .  A
O482       Zr498   2.384       .  S
O482        C505   1.284       .  A
O483       Zr498   2.396       .  S
O483        C506   1.285       .  A
O484       Zr497   2.418       .  S
O484        C507   1.290   1_554  A
O485       Zr499   2.391       .  S
O485        C508   1.282       .  A
O486       Zr499   2.413       .  S
O486        C509   1.285       .  A
O487       Zr497   2.519   1_556  S
O487        C508   1.308       .  A
O488       Zr498   2.500       .  S
O488        C509   1.304       .  A
O489       Zr495   2.391       .  S
O489        C504   1.287       .  A
O490       Zr496   2.391       .  S
O490        C507   1.286       .  A
O491       Zr496   2.390       .  S
O491        C506   1.285       .  A
O492       Zr495   2.397       .  S
O492        C505   1.286   1_554  A
O493       Zr499   2.403       .  S
O493        C502   1.283       .  A
O494       Zr499   2.404       .  S
O494        C503   1.283       .  A
Zr495       O501   2.346   1_554  S
Zr495       O513   2.350   1_554  S
Zr496       O500   2.335       .  S
Zr496       O511   2.339       .  S
Zr497       O501   2.361   1_554  S
Zr497       O511   2.347   1_554  S
Zr498       O500   2.330       .  S
Zr498       O513   2.348       .  S
Zr499       O500   2.325       .  S
Zr499       O501   2.344       .  S
Zr499       O513   2.322       .  S
Zr499       O511   2.323       .  S
C502        C715   1.489       .  S
C503        C705   1.489       .  S
C504        C565   1.462       .  S
C505        C552   1.425   1_556  S
C506        C575   1.434       .  S
C507        C542   1.442       .  S
C508        C585   1.503       .  S
C509        C595   1.494       .  S
H510        O511   0.965       .  S
H512        O513   0.966       .  S
C514        C515   1.428   1_554  A
C514        C519   1.399       .  A
C514        C765   1.495   1_554  S
C515        C516   1.427   1_556  A
C515        H520   1.082       .  S
C516        C517   1.397       .  A
C516        C622   1.493   1_554  S
C517        C518   1.395       .  A
C517        H521   1.084       .  S
C518        C519   1.393       .  A
C518        C562   1.483       .  S
C519        H522   1.085       .  S
C523        C524   1.433       .  A
C523        C528   1.390       .  A
C523        C645   1.489       .  S
C524        C525   1.433       .  A
C524        H529   1.082       .  S
C525        C526   1.389       .  A
C525        C752   1.488       .  S
C526        C527   1.375       .  A
C526        H530   1.087       .  S
C527        C528   1.379       .  A
C527        C555   1.441       .  S
C528        H531   1.087       .  S
C532        C533   1.431   1_556  A
C532        C537   1.396       .  A
C532        C745   1.494   1_556  S
C533        C534   1.430   1_554  A
C533        H538   1.082       .  S
C534        C535   1.394       .  A
C534        C635   1.493       .  S
C535        C536   1.389       .  A
C535        H539   1.085       .  S
C536        C537   1.388       .  A
C536        C545   1.466       .  S
C537        H540   1.086       .  S
C541        C542   1.402       .  A
C541        C546   1.391       .  A
C541        H548   1.084       .  S
C542        C543   1.395       .  A
C543        C544   1.378       .  A
C543        F550   1.359   1_556  S
C544        C545   1.409       .  A
C544        H549   1.081       .  S
C545        C546   1.405       .  A
C546        F547   1.358       .  S
C551        C552   1.395   1_556  A
C551        C556   1.382       .  A
C551        H558   1.084       .  S
C552        C553   1.398       .  A
C553        C554   1.376       .  A
C553        F560   1.358       .  S
C554        C555   1.398       .  A
C554        H559   1.084       .  S
C555        C556   1.404   1_554  A
C556        F557   1.358       .  S
C561        C562   1.409       .  A
C561        C566   1.397       .  A
C561        H568   1.083       .  S
C562        C563   1.414       .  A
C563        C564   1.377       .  A
C563        F570   1.355       .  S
C564        C565   1.398       .  A
C564        H569   1.084       .  S
C565        C566   1.404       .  A
C566        F567   1.357       .  S
C571        C572   1.400       .  A
C571        C576   1.383       .  A
C571        H578   1.084       .  S
C572        C573   1.405   1_556  A
C573        C574   1.377       .  A
C573        F580   1.359       .  S
C574        C575   1.396   1_554  A
C574        H579   1.084       .  S
C575        C576   1.400       .  A
C576        F577   1.356       .  S
C581        C582   1.397       .  A
C581        C586   1.403       .  A
C581        H588   1.083       .  S
C582        C583   1.418       .  A
C583        C584   1.406       .  A
C583        F590   1.356       .  S
C584        C585   1.401       .  A
C584        H589   1.083       .  S
C585        C586   1.424       .  A
C586        F587   1.358       .  S
C591        C592   1.402       .  A
C591        C596   1.405       .  A
C591        H598   1.083       .  S
C592        C593   1.413       .  A
C593        C594   1.405       .  A
C593        F600   1.358       .  S
C594        C595   1.402       .  A
C594        H599   1.081       .  S
C595        C596   1.413       .  A
C596        F597   1.355       .  S
C601        C602   1.400       .  A
C601        C606   1.405       .  A
C601        H608   1.083       .  S
C602        C603   1.414       .  A
C603        C604   1.408       .  A
C603        F610   1.358       .  S
C604        C605   1.406       .  A
C604        H609   1.082       .  S
C605        C606   1.421       .  A
C606        F607   1.358       .  S
C611        C612   1.414       .  A
C611        C616   1.409       .  A
C611        H618   1.083       .  S
C612        C613   1.409       .  A
C613        C614   1.406       .  A
C613        F620   1.357       .  S
C614        C615   1.408       .  A
C614        H619   1.084       .  S
C615        C616   1.404       .  A
C616        F617   1.357       .  S
C621        C622   1.402   1_554  A
C621        C626   1.405       .  A
C621        H628   1.083       .  S
C622        C623   1.414       .  A
C623        C624   1.409       .  A
C623        F630   1.357       .  S
C624        C625   1.406       .  A
C624        H629   1.083       .  S
C625        C626   1.418   1_556  A
C626        F627   1.357       .  S
C631        C632   1.407   1_554  A
C631        C636   1.414       .  A
C631        H638   1.083       .  S
C632        C633   1.405       .  A
C633        C634   1.402       .  A
C633        F640   1.355       .  S
C634        C635   1.407       .  A
C634        H639   1.084       .  S
C635        C636   1.413   1_556  A
C636        F637   1.357       .  S
C641        C642   1.410   1_556  A
C641        C646   1.407       .  A
C641        H648   1.084       .  S
C642        C643   1.403       .  A
C643        C644   1.408       .  A
C643        F650   1.357       .  S
C644        C645   1.414       .  A
C644        H649   1.083       .  S
C645        C646   1.407   1_554  A
C646        F647   1.357       .  S
C651        C652   1.410   1_556  A
C651        C656   1.402       .  A
C651        H658   1.084       .  S
C652        C653   1.409       .  A
C653        C654   1.408       .  A
C653        F660   1.357       .  S
C654        C655   1.406       .  A
C654        H659   1.083       .  S
C655        C656   1.403   1_554  A
C656        F657   1.358       .  S
C661        C662   1.393       .  A
C661        C666   1.391       .  A
C661        H668   1.083       .  S
C662        C663   1.415       .  A
C663        C664   1.379       .  A
C663        F670   1.356       .  S
C664        C665   1.385       .  A
C664        H669   1.084       .  S
C665        C666   1.402       .  A
C666        F667   1.352       .  S
C671        C672   1.393       .  A
C671        C676   1.383       .  A
C671        H678   1.084       .  S
C672        C673   1.405       .  A
C673        C674   1.388       .  A
C673        F680   1.358       .  S
C674        C675   1.401       .  A
C674        H679   1.083       .  S
C675        C676   1.413       .  A
C676        F677   1.357       .  S
C681        C682   1.394       .  A
C681        C686   1.385       .  A
C681        H688   1.084       .  S
C682        C683   1.406       .  A
C683        C684   1.392       .  A
C683        F690   1.358       .  S
C684        C685   1.405       .  A
C684        H689   1.083       .  S
C685        C686   1.419       .  A
C686        F687   1.355       .  S
C691        C692   1.399       .  A
C691        C696   1.380       .  A
C691        H698   1.084       .  S
C692        C693   1.395       .  A
C693        C694   1.380       .  A
C693        F700   1.359       .  S
C694        C695   1.405       .  A
C694        H699   1.084       .  S
C695        C696   1.398       .  A
C696        F697   1.358       .  S
C701        C702   1.408       .  A
C701        C706   1.407       .  A
C701        H708   1.083       .  S
C702        C703   1.415       .  A
C703        C704   1.409       .  A
C703        F710   1.357       .  S
C704        C705   1.403       .  A
C704        H709   1.083       .  S
C705        C706   1.409       .  A
C706        F707   1.358       .  S
C711        C712   1.407       .  A
C711        C716   1.400       .  A
C711        H718   1.084       .  S
C712        C713   1.413       .  A
C713        C714   1.415       .  A
C713        F720   1.357       .  S
C714        C715   1.407       .  A
C714        H719   1.083       .  S
C715        C716   1.405       .  A
C716        F717   1.356       .  S
C721        C722   1.410       .  A
C721        C726   1.407       .  A
C721        H728   1.083       .  S
C722        C723   1.413       .  A
C723        C724   1.410       .  A
C723        F730   1.357       .  S
C724        C725   1.405       .  A
C724        H729   1.083       .  S
C725        C726   1.407       .  A
C726        F727   1.358       .  S
C731        C732   1.414       .  A
C731        C736   1.403       .  A
C731        H738   1.083       .  S
C732        C733   1.404       .  A
C733        C734   1.407       .  A
C733        F740   1.357       .  S
C734        C735   1.415       .  A
C734        H739   1.081       .  S
C735        C736   1.402       .  A
C736        F737   1.357       .  S
C741        C742   1.413   1_556  A
C741        C746   1.406       .  A
C741        H748   1.083       .  S
C742        C743   1.407       .  A
C743        C744   1.411       .  A
C743        F750   1.357       .  S
C744        C745   1.414       .  A
C744        H749   1.083       .  S
C745        C746   1.404   1_554  A
C746        F747   1.357       .  S
C751        C752   1.413   1_556  A
C751        C756   1.405       .  A
C751        H758   1.084       .  S
C752        C753   1.409       .  A
C753        C754   1.409       .  A
C753        F760   1.357       .  S
C754        C755   1.408       .  A
C754        H759   1.083       .  S
C755        C756   1.403   1_554  A
C756        F757   1.356       .  S
C761        C762   1.413   1_554  A
C761        C766   1.404       .  A
C761        H768   1.083       .  S
C762        C763   1.408       .  A
C763        C764   1.414       .  A
C763        F770   1.357       .  S
C764        C765   1.413       .  A
C764        H769   1.083       .  S
C765        C766   1.404   1_556  A
C766        F767   1.357       .  S
C771        C772   1.413       .  A
C771        C776   1.408       .  A
C771        H778   1.083       .  S
C772        C773   1.407   1_554  A
C773        C774   1.403       .  A
C773        F780   1.358       .  S
C774        C775   1.408   1_556  A
C774        H779   1.084       .  S
C775        C776   1.403       .  A
C776        F777   1.357       .  S
C781        C782   1.394       .  A
C781        C786   1.379       .  A
C781        H788   1.084       .  S
C782        C783   1.401       .  A
C783        C784   1.384       .  A
C783        F790   1.358       .  S
C784        C785   1.398       .  A
C784        H789   1.084       .  S
C785        C786   1.405       .  A
C786        F787   1.359       .  S
C791        C792   1.400       .  A
C791        C796   1.388       .  A
C791        H798   1.083       .  S
C792        C793   1.394       .  A
C793        C794   1.376       .  A
C793        F800   1.359       .  S
C794        C795   1.405       .  A
C794        H799   1.084       .  S
C795        C796   1.399       .  A
C796        F797   1.357       .  S
C801        C802   1.399       .  A
C801        C806   1.380       .  A
C801        H808   1.084       .  S
C802        C803   1.397       .  A
C803        C804   1.378       .  A
C803        F810   1.359       .  S
C804        C805   1.401       .  A
C804        H809   1.084       .  S
C805        C806   1.399       .  A
C806        F807   1.358       .  S
C811        C812   1.385       .  A
C811        C816   1.377       .  A
C811        H818   1.084       .  S
C812        C813   1.405       .  A
C813        C814   1.393       .  A
C813        F820   1.358       .  S
C814        C815   1.395       .  A
C814        H819   1.083       .  S
C815        C816   1.413       .  A
C816        F817   1.356       .  S
C821        C822   1.402   1_565  A
C821        C826   1.406       .  A
C821        H828   1.083       .  S
C822        C823   1.417       .  A
C823        C824   1.402       .  A
C823        F830   1.358       .  S
C824        C825   1.400       .  A
C824        H829   1.083       .  S
C825        C826   1.415   1_545  A
C826        F827   1.356       .  S
C831        C832   1.410   1_565  A
C831        C836   1.407       .  A
C831        H838   1.084       .  S
C832        C833   1.402       .  A
C833        C834   1.405       .  A
C833        F840   1.357       .  S
C834        C835   1.415   1_545  A
C834        H839   1.083       .  S
C835        C836   1.409       .  A
C836        F837   1.357       .  S
C841        C842   1.406   1_565  A
C841        C846   1.407       .  A
C841        H848   1.083       .  S
C842        C843   1.414       .  A
C843        C844   1.403       .  A
C843        F850   1.358       .  S
C844        C845   1.401       .  A
C844        H849   1.083       .  S
C845        C846   1.407   1_545  A
C846        F847   1.355       .  S
C851        C852   1.403       .  A
C851        C856   1.409       .  A
C851        H858   1.083       .  S
C852        C853   1.417       .  A
C853        C854   1.403       .  A
C853        F860   1.358       .  S
C854        C855   1.400       .  A
C854        H859   1.083       .  S
C855        C856   1.416       .  A
C856        F857   1.357       .  S
C861        C862   1.405       .  A
C861        C866   1.407       .  A
C861        H868   1.083       .  S
C862        C863   1.407       .  A
C863        C864   1.410       .  A
C863        F870   1.357       .  S
C864        C865   1.412       .  A
C864        H869   1.083       .  S
C865        C866   1.412       .  A
C866        F867   1.357       .  S
C871        C872   1.412       .  A
C871        C876   1.404       .  A
C871        H878   1.084       .  S
C872        C873   1.410       .  A
C873        C874   1.412       .  A
C873        F880   1.357       .  S
C874        C875   1.408       .  A
C874        H879   1.083       .  S
C875        C876   1.403       .  A
C876        F877   1.357       .  S
C881        C882   1.405       .  A
C881        C886   1.413       .  A
C881        H888   1.083       .  S
C882        C883   1.412       .  A
C883        C884   1.401       .  A
C883        F890   1.359       .  S
C884        C885   1.406       .  A
C884        H889   1.084       .  S
C885        C886   1.415       .  A
C886        F887   1.357       .  S
C891        C892   1.395       .  A
C891        C896   1.393       .  A
C891        H898   1.083       .  S
C892        C893   1.412       .  A
C893        C894   1.379   1_545  A
C893        F900   1.356   1_545  S
C894        C895   1.386   1_565  A
C894        H899   1.084       .  S
C895        C896   1.406       .  A
C896        F897   1.358       .  S
C901        C902   1.398       .  A
C901        C906   1.388       .  A
C901        H908   1.083       .  S
C902        C903   1.408       .  A
C903        C904   1.393       .  A
C903        F910   1.358       .  S
C904        C905   1.410       .  A
C904        H909   1.081       .  S
C905        C906   1.421       .  A
C906        F907   1.355       .  S
C911        C912   1.398   1_565  A
C911        C916   1.380       .  A
C911        H918   1.084       .  S
C912        C913   1.399       .  A
C913        C914   1.384       .  A
C913        F920   1.358       .  S
C914        C915   1.402       .  A
C914        H919   1.084       .  S
C915        C916   1.403   1_545  A
C916        F917   1.358       .  S
C921        C922   1.401   1_565  A
C921        C926   1.402       .  A
C921        H928   1.083       .  S
C922        C923   1.409       .  A
C923        C924   1.401       .  A
C923        F930   1.358       .  S
C924        C925   1.405       .  A
C924        H929   1.083       .  S
C925        C926   1.413   1_545  A
C926        F927   1.357       .  S
C931        C932   1.408       .  A
C931        C936   1.394       .  A
C931        H938   1.082       .  S
C932        C933   1.419       .  A
C933        C934   1.384       .  A
C933        F940   1.354       .  S
C934        C935   1.397       .  A
C934        H939   1.084       .  S
C935        C936   1.407       .  A
C936        F937   1.358       .  S
C941        C942   1.402       .  A
C941        C946   1.405       .  A
C941        H948   1.083       .  S
C942        C943   1.414       .  A
C943        C944   1.409       .  A
C943        F950   1.357       .  S
C944        C945   1.405       .  A
C944        H949   1.083       .  S
C945        C946   1.415       .  A
C946        F947   1.357       .  S
C951        C952   1.399       .  A
C951        C956   1.402       .  A
C951        H958   1.084       .  S
C952        C953   1.412       .  A
C953        C954   1.405       .  A
C953        F960   1.358       .  S
C954        C955   1.404       .  A
C954        H959   1.083       .  S
C955        C956   1.418       .  A
C956        F957   1.358       .  S
C961        C962   1.399       .  A
C961        C966   1.399       .  A
C961        H968   1.084       .  S
C962        C963   1.413       .  A
C963        C964   1.407       .  A
C963        F970   1.358       .  S
C964        C965   1.404       .  A
C964        H969   1.083       .  S
C965        C966   1.417       .  A
C966        F967   1.358       .  S
C971        C972   1.410       .  A
C971        C976   1.410       .  A
C971        H978   1.083       .  S
C972        C973   1.409       .  A
C973        C974   1.405       .  A
C973        F980   1.358       .  S
C974        C975   1.405       .  A
C974        H979   1.083       .  S
C975        C976   1.406       .  A
C976        F977   1.357       .  S
C981        C982   1.416   1_545  A
C981        C986   1.403       .  A
C981        H988   1.083       .  S
C982        C983   1.408       .  A
C983        C984   1.409       .  A
C983        F990   1.357       .  S
C984        C985   1.411       .  A
C984        H989   1.084       .  S
C985        C986   1.401   1_565  A
C986        F987   1.357       .  S
C991        C992   1.406   1_545  A
C991        C996   1.407       .  A
C991        H998   1.083       .  S
C992        C993   1.414       .  A
C993        C994   1.404       .  A
C993       F1000   1.358       .  S
C994        C995   1.401       .  A
C994        H999   1.083       .  S
C995        C996   1.409   1_565  A
C996        F997   1.358       .  S
C1001      C1002   1.402       .  A
C1001      C1006   1.403       .  A
C1001      H1008   1.083       .  S
C1002      C1003   1.417   1_565  A
C1003      C1004   1.404       .  A
C1003      F1010   1.356       .  S
C1004      C1005   1.400       .  A
C1004      H1009   1.083       .  S
C1005      C1006   1.415   1_545  A
C1006      F1007   1.355       .  S
C1011      C1012   1.396   1_565  A
C1011      C1016   1.399       .  A
C1011      H1018   1.083       .  S
C1012      C1013   1.412       .  A
C1013      C1014   1.405       .  A
C1013      F1020   1.358       .  S
C1014      C1015   1.403       .  A
C1014      H1019   1.083       .  S
C1015      C1016   1.419   1_545  A
C1016      F1017   1.355       .  S
C1021      C1022   1.410       .  A
C1021      C1026   1.382       .  A
C1021      H1028   1.081       .  S
C1022      C1023   1.407       .  A
C1023      C1024   1.393       .  A
C1023      F1030   1.358       .  S
C1024      C1025   1.403       .  A
C1024      H1029   1.081       .  S
C1025      C1026   1.400       .  A
C1026      F1027   1.359       .  S
C1031      C1032   1.405       .  A
C1031      C1036   1.396       .  A
C1031      H1038   1.083       .  S
C1032      C1033   1.403       .  A
C1033      C1034   1.382       .  A
C1033      F1040   1.359       .  S
C1034      C1035   1.409       .  A
C1034      H1039   1.081       .  S
C1035      C1036   1.409       .  A
C1036      F1037   1.358       .  S
C1041      C1042   1.412       .  A
C1041      C1046   1.384       .  A
C1041      H1048   1.081       .  S
C1042      C1043   1.406       .  A
C1043      C1044   1.394       .  A
C1043      F1050   1.358       .  S
C1044      C1045   1.406       .  A
C1044      H1049   1.084       .  S
C1045      C1046   1.400       .  A
C1046      F1047   1.358       .  S
C1051      C1052   1.406       .  A
C1051      C1056   1.382       .  A
C1051      H1058   1.084       .  S
C1052      C1053   1.401       .  A
C1053      C1054   1.387       .  A
C1053      F1060   1.358       .  S
C1054      C1055   1.402       .  A
C1054      H1059   1.084       .  S
C1055      C1056   1.396       .  A
C1056      F1057   1.359       .  S
C1061      C1062   1.413   1_455  A
C1061      C1066   1.408       .  A
C1061      H1068   1.083       .  S
C1062      C1063   1.402       .  A
C1063      C1064   1.401       .  A
C1063      F1070   1.357       .  S
C1064      C1065   1.411       .  A
C1064      H1069   1.083       .  S
C1065      C1066   1.404   1_655  A
C1066      F1067   1.357       .  S
C1071      C1072   1.401       .  A
C1071      C1076   1.400       .  A
C1071      H1078   1.084       .  S
C1072      C1073   1.412   1_655  A
C1073      C1074   1.407       .  A
C1073      F1080   1.357       .  S
C1074      C1075   1.404   1_455  A
C1074      H1079   1.081       .  S
C1075      C1076   1.410       .  A
C1076      F1077   1.354       .  S
C1081      C1082   1.397   1_655  A
C1081      C1086   1.401       .  A
C1081      H1088   1.084       .  S
C1082      C1083   1.416       .  A
C1083      C1084   1.410       .  A
C1083      F1090   1.356       .  S
C1084      C1085   1.402       .  A
C1084      H1089   1.083       .  S
C1085      C1086   1.419   1_455  A
C1086      F1087   1.355       .  S
C1091      C1092   1.405       .  A
C1091      C1096   1.403       .  A
C1091      H1098   1.084       .  S
C1092      C1093   1.412   1_655  A
C1093      C1094   1.407       .  A
C1093      F1100   1.357       .  S
C1094      C1095   1.404   1_455  A
C1094      H1099   1.083       .  S
C1095      C1096   1.409       .  A
C1096      F1097   1.358       .  S
C1101      C1102   1.406   1_655  A
C1101      C1106   1.410       .  A
C1101      H1108   1.083       .  S
C1102      C1103   1.414       .  A
C1103      C1104   1.404       .  A
C1103      F1110   1.358       .  S
C1104      C1105   1.401       .  A
C1104      H1109   1.083       .  S
C1105      C1106   1.412   1_455  A
C1106      F1107   1.354       .  S
C1111      C1112   1.405       .  A
C1111      C1116   1.405       .  A
C1111      H1118   1.083       .  S
C1112      C1113   1.416   1_455  A
C1113      C1114   1.410       .  A
C1113      F1120   1.357       .  S
C1114      C1115   1.403   1_655  A
C1114      H1119   1.083       .  S
C1115      C1116   1.411       .  A
C1116      F1117   1.357       .  S
C1121      C1122   1.404       .  A
C1121      C1126   1.408       .  A
C1121      H1128   1.083       .  S
C1122      C1123   1.419       .  A
C1123      C1124   1.405       .  A
C1123      F1130   1.358       .  S
C1124      C1125   1.400       .  A
C1124      H1129   1.083       .  S
C1125      C1126   1.415       .  A
C1126      F1127   1.358       .  S
C1131      C1132   1.398       .  A
C1131      C1136   1.401       .  A
C1131      H1138   1.084       .  S
C1132      C1133   1.412       .  A
C1133      C1134   1.405       .  A
C1133      F1140   1.357       .  S
C1134      C1135   1.405       .  A
C1134      H1139   1.083       .  S
C1135      C1136   1.420       .  A
C1136      F1137   1.358       .  S
C1141      C1142   1.414       .  A
C1141      C1146   1.407       .  A
C1141      H1148   1.084       .  S
C1142      C1143   1.407       .  A
C1143      C1144   1.407       .  A
C1143      F1150   1.357       .  S
C1144      C1145   1.409       .  A
C1144      H1149   1.083       .  S
C1145      C1146   1.404       .  A
C1146      F1147   1.357       .  S
C1151      C1152   1.401       .  A
C1151      C1156   1.404       .  A
C1151      H1158   1.083       .  S
C1152      C1153   1.412       .  A
C1153      C1154   1.407       .  A
C1153      F1160   1.358       .  S
C1154      C1155   1.405       .  A
C1154      H1159   1.083       .  S
C1155      C1156   1.416       .  A
C1156      F1157   1.358       .  S
C1161      C1162   1.405       .  A
C1161      C1166   1.410       .  A
C1161      H1168   1.083       .  S
C1162      C1163   1.417       .  A
C1163      C1164   1.403       .  A
C1163      F1170   1.357       .  S
C1164      C1165   1.401       .  A
C1164      H1169   1.083       .  S
C1165      C1166   1.414       .  A
C1166      F1167   1.358       .  S
C1171      C1172   1.412       .  A
C1171      C1176   1.404       .  A
C1171      H1178   1.084       .  S
C1172      C1173   1.409       .  A
C1173      C1174   1.411       .  A
C1173      F1180   1.357       .  S
C1174      C1175   1.409       .  A
C1174      H1179   1.083       .  S
C1175      C1176   1.404       .  A
C1176      F1177   1.358       .  S
C1181      C1182   1.404       .  A
C1181      C1186   1.400       .  A
C1181      H1188   1.084       .  S
C1182      C1183   1.407       .  A
C1183      C1184   1.410       .  A
C1183      F1190   1.357       .  S
C1184      C1185   1.409       .  A
C1184      H1189   1.083       .  S
C1185      C1186   1.408       .  A
C1186      F1187   1.358       .  S
C1191      C1192   1.414       .  A
C1191      C1196   1.404       .  A
C1191      H1198   1.083       .  S
C1192      C1193   1.406       .  A
C1193      C1194   1.408       .  A
C1193      F1200   1.357       .  S
C1194      C1195   1.414       .  A
C1194      H1199   1.082       .  S
C1195      C1196   1.403       .  A
C1196      F1197   1.357       .  S
C1201      C1202   1.407       .  A
C1201      C1206   1.377       .  A
C1201      H1208   1.081       .  S
C1202      C1203   1.404       .  A
C1203      C1204   1.395       .  A
C1203      F1210   1.357       .  S
C1204      C1205   1.404       .  A
C1204      H1209   1.084       .  S
C1205      C1206   1.396       .  A
C1206      F1207   1.359   1_655  S
C1211      C1212   1.406   1_455  A
C1211      C1216   1.375       .  A
C1211      H1218   1.078       .  S
C1212      C1213   1.403       .  A
C1213      C1214   1.393       .  A
C1213      F1220   1.357       .  S
C1214      C1215   1.403       .  A
C1214      H1219   1.084       .  S
C1215      C1216   1.393   1_655  A
C1216      F1217   1.359       .  S
C1221      C1222   1.398       .  A
C1221      C1226   1.385       .  A
C1221      H1228   1.084       .  S
C1222      C1223   1.407   1_455  A
C1223      C1224   1.377       .  A
C1223      F1230   1.358       .  S
C1224      C1225   1.393   1_655  A
C1224      H1229   1.084       .  S
C1225      C1226   1.402       .  A
C1226      F1227   1.358       .  S
C1231      C1232   1.413   1_455  A
C1231      C1236   1.406       .  A
C1231      H1238   1.083       .  S
C1232      C1233   1.407       .  A
C1233      C1234   1.411       .  A
C1233      F1240   1.357       .  S
C1234      C1235   1.414       .  A
C1234      H1239   1.083       .  S
C1235      C1236   1.406   1_655  A
C1236      F1237   1.358       .  S
C1241      C1242   1.414       .  A
C1241      C1246   1.415       .  A
C1241      H1248   1.082       .  S
C1242      C1243   1.406   1_655  A
C1243      C1244   1.405       .  A
C1243      F1250   1.357       .  S
C1244      C1245   1.411   1_455  A
C1244      H1249   1.082       .  S
C1245      C1246   1.407       .  A
C1246      F1247   1.357       .  S
C1251      C1252   1.404       .  A
C1251      C1256   1.395       .  A
C1251      H1258   1.083       .  S
C1252      C1253   1.411       .  A
C1253      C1254   1.374       .  A
C1253      F1260   1.355   1_455  S
C1254      C1255   1.391       .  A
C1254      H1259   1.085   1_455  S
C1255      C1256   1.403       .  A
C1256      F1257   1.358       .  S
