geometry optimzed in LAMMPS
_audit_creation_date              2020-11-30 
_audit_creation_method            'lammps2cif' 
_symmetry_space_group_name_H-M    'P1' 
_symmetry_Int_Tables_number       1 
_symmetry_cell_setting            triclinic 
loop_ 
_symmetry_equiv_pos_as_xyz 
  x,y,z 
_cell_length_a                    57.36676328 
_cell_length_b                    57.309111421942355 
_cell_length_c                    55.20315764667345 
_cell_angle_alpha                 90.03918415029929 
_cell_angle_beta                  89.93624492156857 
_cell_angle_gamma                 89.99808702512155 
loop_ 
_atom_site_label 
_atom_site_type_symbol 
_atom_site_fract_x 
_atom_site_fract_y 
_atom_site_fract_z 
_atom_site_charge 
C1          C  0.92558363  0.99618752  0.81080025     0.80200
N2          N  0.91267190  0.01610069  0.81195894    -0.78100
C3          C  0.88936016  0.01509918  0.81603292     0.82700
N4          N  0.87907256  0.99405214  0.81886981    -0.78000
C5          C  0.89158962  0.97408774  0.81771896     0.82800
N6          N  0.91486876  0.97512386  0.81341763    -0.79700
In7        In  0.28111282  0.18779254  0.83859430     1.36900
C8          C  0.27389599  0.20415795  0.88292393     0.77600
O9          O  0.24386013  0.17728781  0.83247180    -0.60800
O10         O  0.26823021  0.15116729  0.84212311    -0.51700
C11         C  0.27787123  0.21015433  0.79683782     0.70300
O12         O  0.27719785  0.22064139  0.81696250    -0.46600
C13         C  0.32606515  0.17817737  0.83539450     0.75000
O14         O  0.26650449  0.21451855  0.86431794    -0.58500
O15         O  0.31050258  0.16265649  0.83480580    -0.48600
O16         O  0.28573280  0.18615051  0.87861930    -0.54900
C17         C  0.24743954  0.15599627  0.83676391     0.85200
O18         O  0.27989658  0.18829082  0.79835728    -0.56800
O19         O  0.31854325  0.19872978  0.83783535    -0.60100
C20         C  0.52646267  0.87917252  0.82601763     0.80200
N21         N  0.52660938  0.90280776  0.82494428    -0.78100
C22         C  0.50643034  0.91488918  0.82288242     0.82700
N23         N  0.48593523  0.90312869  0.82210256    -0.78000
C24         C  0.48553240  0.87941974  0.82310581     0.82800
N25         N  0.50591454  0.86741744  0.82492204    -0.79700
C26         C  0.49141898  0.12730879  0.81556071     0.80200
N27         N  0.49077386  0.10381295  0.81828558    -0.78100
C28         C  0.50985989  0.09064372  0.81381987     0.82700
N29         N  0.52982457  0.10123674  0.80680870    -0.78000
C30         C  0.53082160  0.12474995  0.80412263     0.82800
N31         N  0.51149831  0.13791460  0.80842529    -0.79700
In32       In  0.27517917  0.81211644  0.83834959     1.36900
C33         C  0.26647317  0.78969165  0.87953540     0.77600
O34         O  0.31317472  0.80226247  0.83723723    -0.60800
O35         O  0.30420612  0.83808073  0.83682199    -0.51700
C36         C  0.27156597  0.79414664  0.79428584     0.70300
O37         O  0.27416186  0.78169597  0.81292692    -0.46600
C38         C  0.24170876  0.84402966  0.83980460     0.75000
O39         O  0.25951574  0.78238435  0.85927233    -0.58500
O40         O  0.26255764  0.84844919  0.84541062    -0.48600
O41         O  0.27841381  0.80809250  0.87849435    -0.54900
C42         C  0.32024950  0.82307292  0.83626275     0.85200
O43         O  0.27050246  0.81574717  0.79841818    -0.56800
O44         O  0.23796228  0.82306313  0.83414660    -0.60100
In45       In  0.73715522  0.81913216  0.80287525     1.36900
C46         C  0.74898799  0.79937889  0.84431476     0.77600
O47         O  0.77502545  0.82777304  0.80301562    -0.60800
O48         O  0.75091580  0.85569951  0.79951180    -0.51700
C49         C  0.73651790  0.80096289  0.75881374     0.70300
O50         O  0.73598306  0.78853614  0.77765059    -0.46600
C51         C  0.69209492  0.82765065  0.80984554     0.75000
O52         O  0.75306312  0.78983599  0.82411427    -0.58500
O53         O  0.70739399  0.84349274  0.80986771    -0.48600
O54         O  0.73843468  0.81860843  0.84301090    -0.54900
C55         C  0.77199039  0.84950016  0.80128985     0.85200
O56         O  0.73792999  0.82259120  0.76265725    -0.56800
O57         O  0.69996918  0.80745370  0.80608338    -0.60100
In58       In  0.74241756  0.17826900  0.78831292     1.36900
C59         C  0.74277160  0.19502909  0.83292784     0.77600
O60         O  0.70534069  0.19008072  0.78496345    -0.60800
O61         O  0.71262627  0.15375592  0.78699181    -0.51700
C62         C  0.74983471  0.19943563  0.74621730     0.70300
O63         O  0.75282004  0.20958446  0.76626812    -0.46600
C64         C  0.77587243  0.14650660  0.79260790     0.75000
O65         O  0.75109427  0.20628560  0.81524158    -0.58500
O66         O  0.75558827  0.14164066  0.78549959    -0.48600
O67         O  0.73376393  0.17573743  0.82738991    -0.54900
C68         C  0.69738339  0.16954627  0.78558820     0.85200
O69         O  0.74397131  0.17833552  0.74796365    -0.56800
O70         O  0.77925689  0.16788925  0.79653309    -0.60100
C71         C  0.10082115  0.00234146  0.81474410     0.80200
N72         N  0.11314493  0.02263657  0.81455149    -0.78100
C73         C  0.13672943  0.02222204  0.81652813     0.82700
N74         N  0.14784519  0.00154234  0.81897533    -0.78000
C75         C  0.13578884  0.98125383  0.81955567     0.82800
N76         N  0.11227106  0.98171949  0.81745555    -0.79700
C77         C  0.98778525  0.39005635  0.06542586     0.80200
N78         N  0.00836045  0.37835697  0.06753484    -0.78100
C79         C  0.00845141  0.35505552  0.07217707     0.82700
N80         N  0.98791984  0.34352336  0.07419615    -0.78000
C81         C  0.96729908  0.35483564  0.07192232     0.82800
N82         N  0.96732805  0.37817979  0.06761672    -0.79700
C83         C  0.86252631  0.96635795  0.01407940     0.80200
N84         N  0.84962716  0.98617695  0.01635450    -0.78100
C85         C  0.86038252  0.00728278  0.01755957     0.82700
N86         N  0.88400698  0.00829900  0.01763955    -0.78000
C87         C  0.89700889  0.98866341  0.01588984     0.82800
N88         N  0.88617823  0.96774080  0.01392002    -0.79700
C89         C  0.10424402  0.00676921  0.06081354     0.80200
N90         N  0.08117786  0.00701250  0.05522231    -0.78100
C91         C  0.06959143  0.98692537  0.05035614     0.82700
N92         N  0.08139664  0.96647140  0.05113807    -0.78000
C93         C  0.10435678  0.96587289  0.05695949     0.82800
N94         N  0.11581804  0.98609304  0.06180504    -0.79700
In95       In  0.79833189  0.21335320  0.05114382     1.36900
C96         C  0.77579138  0.22232430  0.09227847     0.77600
O97         O  0.78399943  0.17727893  0.04538720    -0.60800
O98         O  0.81868432  0.18083236  0.05815144    -0.51700
C99         C  0.78482457  0.21908220  0.00559425     0.70300
O100        O  0.77080384  0.22051443  0.02320727    -0.46600
C101        C  0.83191326  0.24527350  0.05415168     0.75000
O102        O  0.76847095  0.22918103  0.07192085    -0.58500
O103        O  0.83621775  0.22389761  0.05084446    -0.48600
O104        O  0.79399739  0.21003299  0.09125201    -0.54900
C105        C  0.80261161  0.16719552  0.05152099     0.85200
O106        O  0.80566472  0.21529760  0.01156569    -0.56800
O107        O  0.81054875  0.25010777  0.05567692    -0.60100
In108      In  0.17726079  0.21383746  0.08440237     1.36900
C109        C  0.19044591  0.22168282  0.12964760     0.77600
O110        O  0.16657227  0.25157694  0.08214695    -0.60800
O111        O  0.14052368  0.22525124  0.08163129    -0.51700
C112        C  0.20143199  0.22182710  0.04430381     0.70300
O113        O  0.21084305  0.22164830  0.06493138    -0.46600
C114        C  0.16698564  0.16866576  0.08086610     0.75000
O115        O  0.20458080  0.22178060  0.11214860    -0.58500
O116        O  0.15275125  0.18485131  0.07689788    -0.48600
O117        O  0.16979884  0.21663437  0.12394975    -0.54900
C118        C  0.14514971  0.24671281  0.08073039     0.85200
O119        O  0.17991732  0.21769750  0.04443822    -0.56800
O120        O  0.18694517  0.17548039  0.08729508    -0.60100
In121      In  0.16788885  0.75486224  0.07508835     1.36900
C122        C  0.18220918  0.75159249  0.12048074     0.77600
O123        O  0.17848306  0.79273422  0.07530277    -0.60800
O124        O  0.14259696  0.78419298  0.07329397    -0.51700
C125        C  0.19125776  0.74923611  0.03410425     0.70300
O126        O  0.20049698  0.74595752  0.05455281    -0.46600
C127        C  0.13896730  0.71870671  0.07331426     0.75000
O128        O  0.19578625  0.74886555  0.10267308    -0.58500
O129        O  0.13251891  0.73926051  0.06864048    -0.48600
O130        O  0.16145653  0.75632341  0.11484146    -0.54900
C131        C  0.15779116  0.80007608  0.07403480     0.85200
O132        O  0.17012444  0.75510914  0.03487333    -0.56800
O133        O  0.16026825  0.71671645  0.07843514    -0.60100
In134      In  0.81348881  0.75475965  0.05332830     1.36900
C135        C  0.78948321  0.75171060  0.09409107     0.77600
O136        O  0.82341801  0.71687553  0.05575729    -0.60800
O137        O  0.84974346  0.74250252  0.06019102    -0.51700
C138        C  0.80047086  0.74845737  0.00809092     0.70300
O139        O  0.78634933  0.74698894  0.02558470    -0.46600
C140        C  0.82030605  0.80046048  0.04888023     0.75000
O141        O  0.78107030  0.74551014  0.07398788    -0.58500
O142        O  0.83652448  0.78633301  0.05368071    -0.48600
O143        O  0.80997695  0.75954716  0.09300884    -0.54900
C144        C  0.84473458  0.72108580  0.05936726     0.85200
O145        O  0.82144870  0.75141116  0.01411415    -0.56800
O146        O  0.80048060  0.79116370  0.04715527    -0.60100
C147        C  0.99116656  0.56577358  0.07185869     0.80200
N148        N  0.01177779  0.57675064  0.07676257    -0.78100
C149        C  0.01222999  0.60004572  0.08162761     0.82700
N150        N  0.99197571  0.61217633  0.08160039    -0.78000
C151        C  0.97148569  0.60166060  0.07659268     0.82800
N152        N  0.97109874  0.57849803  0.07153129    -0.79700
C153        C  0.49346299  0.11422991  0.57041209     0.80200
N154        N  0.47278410  0.12591977  0.57124819    -0.78100
C155        C  0.47239742  0.14946876  0.57403020     0.82700
N156        N  0.49276790  0.16120044  0.57547416    -0.78000
C157        C  0.51352080  0.15004913  0.57444979     0.82800
N158        N  0.51378634  0.12645553  0.57192941    -0.79700
In159      In  0.30077150  0.28552430  0.58505089     1.36900
C160        C  0.28831974  0.27818044  0.63071298     0.77600
O161        O  0.31781504  0.25128547  0.59232344    -0.60800
O162        O  0.33050713  0.27155935  0.56302756    -0.51700
C163        C  0.26976096  0.28427666  0.54938380     0.70300
O164        O  0.27455529  0.30254481  0.56095109    -0.46600
C165        C  0.31960982  0.32772133  0.58418749     0.75000
O166        O  0.27455913  0.27425764  0.61330323    -0.58500
O167        O  0.32979095  0.31000036  0.57569049    -0.48600
O168        O  0.30779458  0.28632232  0.62448159    -0.54900
C169        C  0.33242779  0.25315651  0.57537688     0.85200
O170        O  0.27928016  0.26616088  0.55756103    -0.56800
O171        O  0.29998955  0.32363458  0.59360765    -0.60100
C172        C  0.38506032  0.48946025  0.56492084     0.80200
N173        N  0.40827763  0.49026940  0.56009908    -0.78100
C174        C  0.41905951  0.51085010  0.55597788     0.82700
N175        N  0.40656860  0.53075279  0.55660994    -0.78000
C176        C  0.38335711  0.53041442  0.56106961     0.82800
N177        N  0.37252448  0.50969200  0.56545452    -0.79700
C178        C  0.62758822  0.54006142  0.54293193     0.80200
N179        N  0.60401469  0.53859901  0.54206354    -0.78100
C180        C  0.59312125  0.51790395  0.53905516     0.82700
N181        N  0.60607087  0.49826836  0.53704703    -0.78000
C182        C  0.62970367  0.49925779  0.53792080     0.82800
N183        N  0.64059065  0.52023197  0.54098394    -0.79700
In184      In  0.68584857  0.28721600  0.55620449     1.36900
C185        C  0.71386673  0.27789712  0.59320337     0.77600
O186        O  0.69788122  0.32443339  0.55422619    -0.60800
O187        O  0.66161877  0.31773082  0.55650197    -0.51700
C188        C  0.69736938  0.28228178  0.51012361     0.70300
O189        O  0.71218149  0.28187090  0.52701771    -0.46600
C190        C  0.65296049  0.25560252  0.56436204     0.75000
O191        O  0.71730194  0.26963795  0.57233636    -0.58500
O192        O  0.65203911  0.27593147  0.57303289    -0.48600
O193        O  0.69669015  0.29148492  0.59464267    -0.54900
C194        C  0.67755469  0.33280128  0.55491277     0.85200
O195        O  0.67658035  0.28502683  0.51699252    -0.56800
O196        O  0.67094094  0.25141838  0.55202020    -0.60100
In197      In  0.67668226  0.75632170  0.54507951     1.36900
C198        C  0.69412420  0.76129754  0.58919458     0.77600
O199        O  0.66753441  0.79461344  0.54313417    -0.60800
O200        O  0.64034137  0.76985303  0.54727372    -0.51700
C201        C  0.69531576  0.76052061  0.50142493     0.70300
O202        O  0.70680126  0.76459307  0.52049050    -0.46600
C203        C  0.66905376  0.71037231  0.54504042     0.75000
O204        O  0.70657716  0.76382852  0.57047826    -0.58500
O205        O  0.65290100  0.72524163  0.54346449    -0.48600
O206        O  0.67313382  0.75642129  0.58498016    -0.54900
C207        C  0.64593103  0.79107890  0.54546775     0.85200
O208        O  0.67428982  0.75515568  0.50497935    -0.56800
O209        O  0.68917093  0.71911109  0.54649220    -0.60100
In210      In  0.32034410  0.74119869  0.57900964     1.36900
C211        C  0.30379265  0.74607138  0.62377010     0.77600
O212        O  0.31114090  0.70357467  0.57379511    -0.60800
O213        O  0.34579176  0.71178609  0.58378839    -0.51700
C214        C  0.29846516  0.74605672  0.53683848     0.70300
O215        O  0.28788159  0.74715647  0.55690425    -0.46600
C216        C  0.34967913  0.77689814  0.57549638     0.75000
O217        O  0.29098364  0.74818413  0.60529691    -0.58500
O218        O  0.35530465  0.75622648  0.57022783    -0.48600
O219        O  0.32468660  0.74098600  0.61909499    -0.54900
C220        C  0.33130792  0.69609910  0.57836374     0.85200
O221        O  0.32015075  0.74302960  0.53864109    -0.56800
O222        O  0.32894156  0.77924130  0.58270954    -0.60100
C223        C  0.49080179  0.93815482  0.55579307     0.80200
N224        N  0.47107642  0.92535313  0.56004949    -0.78100
C225        C  0.47187955  0.90160411  0.55926304     0.82700
N226        N  0.49231289  0.89096723  0.55397386    -0.78000
C227        C  0.51192268  0.90328253  0.54960147     0.82800
N228        N  0.51120487  0.92690578  0.55077718    -0.79700
C229        C  0.39025730  0.49879788  0.29987531     0.80200
N230        N  0.37805015  0.51909696  0.30151719    -0.78100
C231        C  0.35443256  0.51892528  0.30287898     0.82700
N232        N  0.34312642  0.49815913  0.30275618    -0.78000
C233        C  0.35501359  0.47778409  0.30127596     0.82800
N234        N  0.37863207  0.47811706  0.30008065    -0.79700
C235        C  0.00151626  0.37576325  0.31955809     0.80200
N236        N  0.00232291  0.39944402  0.31922732    -0.78100
C237        C  0.98310967  0.41201123  0.31359836     0.82700
N238        N  0.96309421  0.40071296  0.30829217    -0.78000
C239        C  0.96191577  0.37712348  0.30871935     0.82800
N240        N  0.98124066  0.36450272  0.31435636    -0.79700
C241        C  0.96430342  0.62318462  0.32141550     0.80200
N242        N  0.96435092  0.59950481  0.32063542    -0.78100
C243        C  0.98469338  0.58752401  0.32070314     0.82700
N244        N  0.00503915  0.59937922  0.32149402    -0.78000
C245        C  0.00544716  0.62302651  0.32223464     0.82800
N246        N  0.98491205  0.63505296  0.32209530    -0.79700
In247      In  0.21132831  0.31470294  0.33390285     1.36900
C248        C  0.21605148  0.30176286  0.37947878     0.77600
O249        O  0.24934771  0.32367955  0.33143865    -0.60800
O250        O  0.22458538  0.35112913  0.33321654    -0.51700
C251        C  0.21493799  0.29131210  0.29273257     0.70300
O252        O  0.21545306  0.28116685  0.31304486    -0.46600
C253        C  0.16635804  0.32428222  0.33176171     0.75000
O254        O  0.22376139  0.28953406  0.36218394    -0.58500
O255        O  0.18197261  0.33926851  0.32767746    -0.48600
O256        O  0.20584358  0.32022239  0.37322531    -0.54900
C257        C  0.24573433  0.34538207  0.33154726     0.85200
O258        O  0.21287525  0.31314588  0.29387648    -0.56800
O259        O  0.17390713  0.30410330  0.33650078    -0.60100
In260      In  0.74909130  0.32121106  0.29342981     1.36900
C261        C  0.74387960  0.30420703  0.33778658     0.77600
O262        O  0.78662916  0.31089344  0.29009517    -0.60800
O263        O  0.77859515  0.34571858  0.30015315    -0.51700
C264        C  0.74611430  0.29738305  0.25210575     0.70300
O265        O  0.74317977  0.28789179  0.27251200    -0.46600
C266        C  0.71601552  0.35389640  0.28989325     0.75000
O267        O  0.73500437  0.29450248  0.31943004    -0.58500
O268        O  0.73690001  0.35717410  0.28374303    -0.48600
O269        O  0.75553847  0.32225107  0.33318501    -0.54900
C270        C  0.79422829  0.33076326  0.29599105     0.85200
O271        O  0.75004393  0.31899855  0.25308396    -0.56800
O272        O  0.71194453  0.33362619  0.29765003    -0.60100
In273      In  0.75276825  0.68513795  0.30189714     1.36900
C274        C  0.75081870  0.70996621  0.34244306     0.77600
O275        O  0.71489017  0.67671351  0.30825078    -0.60800
O276        O  0.73822203  0.64884841  0.30173570    -0.51700
C277        C  0.74671482  0.70154358  0.25748184     0.70300
O278        O  0.74511847  0.71421902  0.27607228    -0.46600
C279        C  0.79800999  0.67493331  0.30268853     0.75000
O280        O  0.74439809  0.71786991  0.32221785    -0.58500
O281        O  0.78231624  0.66021711  0.30746938    -0.48600
O282        O  0.75801662  0.68919117  0.34184270    -0.54900
C283        C  0.71753401  0.65499763  0.30601537     0.85200
O284        O  0.75103457  0.68040443  0.26180347    -0.56800
O285        O  0.79042589  0.69476384  0.29675941    -0.60100
In286      In  0.21601352  0.68846454  0.33578545     1.36900
C287        C  0.22773647  0.71055995  0.37647399     0.77600
O288        O  0.17834034  0.69990753  0.33673266    -0.60800
O289        O  0.18604370  0.66395876  0.34072145    -0.51700
C290        C  0.21523081  0.70473963  0.29084997     0.70300
O291        O  0.21866408  0.71787954  0.30890279    -0.46600
C292        C  0.24959942  0.65627219  0.33302580     0.75000
O293        O  0.23241126  0.71866004  0.35580858    -0.58500
O294        O  0.22951592  0.65206023  0.34119523    -0.48600
O295        O  0.21669879  0.69159833  0.37605687    -0.54900
C296        C  0.17052587  0.67948326  0.33938760     0.85200
O297        O  0.21234342  0.68352907  0.29608567    -0.56800
O298        O  0.25257446  0.67711586  0.32648542    -0.60100
C299        C  0.56584967  0.50628443  0.30224143     0.80200
N300        N  0.57628880  0.52682528  0.30817965    -0.78100
C301        C  0.59964357  0.52764328  0.31189554     0.82700
N302        N  0.61249001  0.50797875  0.30929762    -0.78000
C303        C  0.60245209  0.48746018  0.30298768     0.82800
N304        N  0.57902098  0.48667240  0.29963880    -0.79700
C305        C  0.62349656  0.58830280  0.30377085    -0.27600
C306        C  0.64380743  0.58688472  0.31793565     0.02000
C307        C  0.64659579  0.56786721  0.33383444     0.30100
C308        C  0.63075982  0.54932979  0.33312051    -0.19400
C309        C  0.61180107  0.54969409  0.31711901    -0.28800
C310        C  0.60732073  0.56999328  0.30358277     0.44200
C311        C  0.66262215  0.60441123  0.31475803     0.05300
O312        O  0.66476455  0.56734999  0.35002577    -0.57300
H313        H  0.63389201  0.53413359  0.34433730     0.18300
O314        O  0.58848259  0.57120902  0.28837699    -0.64000
H315        H  0.62080614  0.60303431  0.29180725     0.16700
C316        C  0.68576809  0.59736664  0.31003779     0.29000
C317        C  0.70329721  0.61404080  0.30717895    -0.24900
C318        C  0.69824554  0.63797288  0.30846229    -0.24200
C319        C  0.67495879  0.64506093  0.31230377     0.40400
C320        C  0.65738493  0.62832390  0.31533706    -0.26600
O321        O  0.69149413  0.57421172  0.30786632    -0.58500
H322        H  0.72096638  0.60813888  0.30390686     0.16100
O323        O  0.66907486  0.66824472  0.31286507    -0.60000
H324        H  0.63963301  0.63405845  0.31843951     0.14500
H325        H  0.57563205  0.57757252  0.29850249     0.46400
H326        H  0.68612718  0.56954127  0.29148714     0.41700
H327        H  0.66953636  0.67266096  0.33021560     0.45200
H328        H  0.67389487  0.55306207  0.34613960     0.36700
C329        C  0.68669826  0.41274771  0.28150111    -0.27600
C330        C  0.66415946  0.40827928  0.29022513     0.02000
C331        C  0.65818111  0.38536075  0.29700288     0.30100
C332        C  0.67502721  0.36763074  0.29618348    -0.19400
C333        C  0.69796627  0.37239047  0.28861008    -0.28800
C334        C  0.70351328  0.39512101  0.28066105     0.44200
C335        C  0.64781205  0.42806833  0.29379657     0.05300
O336        O  0.63617529  0.38026290  0.30517343    -0.57300
H337        H  0.67025386  0.35025193  0.30209166     0.18300
O338        O  0.72554636  0.40061153  0.27287076    -0.64000
H339        H  0.69145381  0.43018870  0.27576357     0.16700
C340        C  0.65469798  0.44752411  0.30760556     0.29000
C341        C  0.63960930  0.46641554  0.31052269    -0.24900
C342        C  0.61733289  0.46645357  0.29996045    -0.24200
C343        C  0.61021634  0.44675391  0.28644777     0.40400
C344        C  0.62548331  0.42781375  0.28337362    -0.26600
O345        O  0.67587357  0.44781161  0.31916153    -0.58500
H346        H  0.64544997  0.48107259  0.32133488     0.16100
O347        O  0.58883689  0.44614520  0.27537701    -0.60000
H348        H  0.61999704  0.41303709  0.27253922     0.14500
H349        H  0.72505907  0.39883505  0.25499149     0.46400
H350        H  0.68553101  0.45916104  0.31007998     0.41700
H351        H  0.57848825  0.43781429  0.28688524     0.45200
H352        H  0.63688269  0.38227350  0.32300457     0.36700
C353        C  0.90144813  0.63724714  0.33485429    -0.27600
C354        C  0.89555910  0.65158989  0.31517859     0.02000
C355        C  0.91333924  0.65887432  0.29916175     0.30100
C356        C  0.93628972  0.65093757  0.30238280    -0.19400
C357        C  0.94168017  0.63537244  0.32115336    -0.28800
C358        C  0.92418153  0.62896478  0.33774188     0.44200
C359        C  0.87066712  0.65766349  0.31097687     0.05300
O360        O  0.90828572  0.67274613  0.27962475    -0.57300
H361        H  0.94955395  0.65578448  0.28933494     0.18300
O362        O  0.92898326  0.61390607  0.35638399    -0.64000
H363        H  0.88818821  0.63188467  0.34768727     0.16700
C364        C  0.85338822  0.64013944  0.31085348     0.29000
C365        C  0.82994528  0.64605161  0.30782358    -0.24900
C366        C  0.82314230  0.66934886  0.30456675    -0.24200
C367        C  0.84041841  0.68689748  0.30424961     0.40400
C368        C  0.86394301  0.68097494  0.30741305    -0.26600
O369        O  0.85921428  0.61708987  0.31369516    -0.58500
H370        H  0.81702208  0.63226534  0.30807056     0.16100
O371        O  0.83454668  0.70992009  0.30129472    -0.60000
H372        H  0.87691127  0.69471243  0.30763223     0.14500
H373        H  0.93332348  0.62404320  0.37024989     0.46400
H374        H  0.86284210  0.61139323  0.29715423     0.41700
H375        H  0.83169083  0.71589321  0.31788298     0.45200
H376        H  0.90312441  0.66186093  0.26674401     0.36700
C377        C  0.05446625  0.66520096  0.33834725    -0.27600
C378        C  0.07394674  0.65284172  0.32972033     0.02000
C379        C  0.07045724  0.63187571  0.31695768     0.30100
C380        C  0.04800376  0.62299347  0.31402518    -0.19400
C381        C  0.02846093  0.63480579  0.32336298    -0.28800
C382        C  0.03180385  0.65641413  0.33510049     0.44200
C383        C  0.09797370  0.66118193  0.33466480     0.05300
O384        O  0.08897780  0.61968098  0.30758999    -0.57300
H385        H  0.04594820  0.60653087  0.30459825     0.18300
O386        O  0.01330279  0.66833197  0.34481869    -0.64000
H387        H  0.05687226  0.68131738  0.34829368     0.16700
C388        C  0.10568433  0.68323443  0.32680952     0.29000
C389        C  0.12919805  0.68950737  0.32946840    -0.24900
C390        C  0.14530587  0.67393503  0.33981116    -0.24200
C391        C  0.13725717  0.65235007  0.34874630     0.40400
C392        C  0.11378526  0.64621182  0.34625218    -0.26600
O393        O  0.09077683  0.69805233  0.31498292    -0.58500
H394        H  0.13502458  0.70615726  0.32242166     0.16100
O395        O  0.15216018  0.63712837  0.36003257    -0.60000
H396        H  0.10799380  0.62938424  0.35288152     0.14500
H397        H  0.00897903  0.68003922  0.33239624     0.46400
H398        H  0.08551482  0.70932944  0.32746679     0.41700
H399        H  0.15657712  0.62558001  0.34740375     0.45200
H400        H  0.09207201  0.62687412  0.29156933     0.36700
C401        C  0.90804639  0.33954555  0.31561103    -0.27600
C402        C  0.89258835  0.35130037  0.30012909     0.02000
C403        C  0.90087616  0.36974141  0.28570963     0.30100
C404        C  0.92393854  0.37702557  0.28782251    -0.19400
C405        C  0.93919446  0.36607290  0.30409454    -0.28800
C406        C  0.93126286  0.34687890  0.31773623     0.44200
C407        C  0.86752102  0.34544192  0.30014952     0.05300
O408        O  0.88630906  0.38127554  0.27007387    -0.57300
H409        H  0.92974607  0.39179433  0.27714650     0.18300
O410        O  0.94554341  0.33611833  0.33421254    -0.64000
H411        H  0.90181634  0.32540657  0.32691366     0.16700
C412        C  0.85967934  0.32277459  0.29485612     0.29000
C413        C  0.83574771  0.31815448  0.29384996    -0.24900
C414        C  0.81936743  0.33596958  0.29800154    -0.24200
C415        C  0.82733626  0.35852855  0.30399622     0.40400
C416        C  0.85121252  0.36307736  0.30499168    -0.26600
O417        O  0.87524783  0.30516948  0.29018488    -0.58500
H418        H  0.83002791  0.30063516  0.28948670     0.16100
O419        O  0.81203063  0.37643680  0.30836951    -0.60000
H420        H  0.85705429  0.38054635  0.30944117     0.14500
H421        H  0.94375920  0.34521558  0.34939072     0.46400
H422        H  0.87661983  0.30458516  0.27228802     0.41700
H423        H  0.80933254  0.37619339  0.32608857     0.45200
H424        H  0.88901425  0.37393385  0.25404553     0.36700
C425        C  0.10961208  0.35780958  0.32733201    -0.27600
C426        C  0.09332061  0.34019083  0.33211966     0.02000
C427        C  0.10099969  0.31736800  0.33667453     0.30100
C428        C  0.12484784  0.31233354  0.33626090    -0.19400
C429        C  0.14127455  0.32995441  0.33147916    -0.28800
C430        C  0.13343497  0.35290547  0.32708863     0.44200
C431        C  0.06834376  0.34598457  0.33165815     0.05300
O432        O  0.08532962  0.29995611  0.34168322    -0.57300
H433        H  0.13047581  0.29462762  0.33985123     0.18300
O434        O  0.14880260  0.37065610  0.32228314    -0.64000
H435        H  0.10378765  0.37543568  0.32360144     0.16700
C436        C  0.05918009  0.36238865  0.34801110     0.29000
C437        C  0.03654863  0.37072973  0.34482290    -0.24900
C438        C  0.02287838  0.36289912  0.32541006    -0.24200
C439        C  0.03142905  0.34525744  0.31005473     0.40400
C440        C  0.05418087  0.33696811  0.31318438    -0.26600
O441        O  0.07242220  0.37063434  0.36685176    -0.58500
H442        H  0.02999301  0.38409950  0.35694371     0.16100
O443        O  0.01859497  0.33767575  0.29063927    -0.60000
H444        H  0.06121283  0.32444017  0.30040760     0.14500
H445        H  0.15242573  0.37761901  0.33823147     0.46400
H446        H  0.07787017  0.38628412  0.36164115     0.41700
H447        H  0.01075720  0.32330783  0.29629341     0.45200
H448        H  0.08374942  0.29994336  0.35957186     0.36700
C449        C  0.00251495  0.52436218  0.32858352    -0.27600
C450        C  0.98527417  0.51278972  0.31515768     0.02000
C451        C  0.96765359  0.52602329  0.30378691     0.30100
C452        C  0.96736026  0.55029583  0.30620494    -0.19400
C453        C  0.98481805  0.56183604  0.31932853    -0.28800
C454        C  0.00250040  0.54864826  0.33057096     0.44200
C455        C  0.98509509  0.48693466  0.31426703     0.05300
O456        O  0.95067183  0.51542259  0.29018882    -0.57300
H457        H  0.95371958  0.56015229  0.29730089     0.18300
O458        O  0.01960464  0.55925068  0.34398854    -0.64000
H459        H  0.01578229  0.51453816  0.33808170     0.16700
C460        C  0.00547276  0.47397720  0.30930889     0.29000
C461        C  0.00466605  0.44955056  0.30926934    -0.24900
C462        C  0.98368372  0.43773931  0.31385473    -0.24200
C463        C  0.96335844  0.45076064  0.31876498     0.40400
C464        C  0.96426879  0.47504193  0.31919414    -0.26600
O465        O  0.02595869  0.48501673  0.30347573    -0.58500
H466        H  0.02041759  0.43986014  0.30522223     0.16100
O467        O  0.94248636  0.44000523  0.32350636    -0.60000
H468        H  0.94858477  0.48461802  0.32375854     0.14500
H469        H  0.01333925  0.55997846  0.36070429     0.46400
H470        H  0.03656245  0.48213235  0.31731668     0.41700
H471        H  0.94252041  0.43703232  0.34123707     0.45200
H472        H  0.95648743  0.51592704  0.27330122     0.36700
C473        C  0.50279414  0.52260227  0.29034697    -0.27600
C474        C  0.49113022  0.50232044  0.29794237     0.02000
C475        C  0.50436747  0.48307459  0.30596290     0.30100
C476        C  0.52868303  0.48437423  0.30638442    -0.19400
C477        C  0.54025728  0.50496794  0.29970712    -0.28800
C478        C  0.52708295  0.52415802  0.29149964     0.44200
C479        C  0.46524003  0.50161742  0.29798661     0.05300
O480        O  0.49374675  0.46313395  0.31415273    -0.57300
H481        H  0.53847007  0.46947562  0.31289479     0.18300
O482        O  0.53768902  0.54454664  0.28458611    -0.64000
H483        H  0.49303188  0.53739964  0.28357750     0.16700
C484        C  0.45208610  0.52014091  0.30780994     0.29000
C485        C  0.42778253  0.51903854  0.30792790    -0.24900
C486        C  0.41602387  0.49941967  0.29882740    -0.24200
C487        C  0.42914291  0.48088561  0.28892774     0.40400
C488        C  0.45349056  0.48218138  0.28841798    -0.26600
O489        O  0.46277698  0.53928390  0.31776380    -0.58500
H490        H  0.41814044  0.53346458  0.31573031     0.16100
O491        O  0.41843859  0.46151505  0.27947336    -0.60000
H492        H  0.46321195  0.46796889  0.28031768     0.14500
H493        H  0.54248522  0.54202335  0.26752621     0.46400
H494        H  0.46516974  0.53528327  0.33505826     0.41700
H495        H  0.41616372  0.46504053  0.26210544     0.45200
H496        H  0.48995223  0.46626747  0.33138131     0.36700
C497        C  0.30430638  0.56193604  0.30756395    -0.27600
C498        C  0.31559480  0.58216051  0.31566476     0.02000
C499        C  0.34003263  0.58207056  0.31807209     0.30100
C500        C  0.35262182  0.56155497  0.31322486    -0.19400
C501        C  0.34114133  0.54099046  0.30589709    -0.28800
C502        C  0.31673088  0.54159224  0.30263321     0.44200
C503        C  0.30100128  0.60251359  0.32241040     0.05300
O504        O  0.35153608  0.60138804  0.32660265    -0.57300
H505        H  0.37131804  0.56160685  0.31595853     0.18300
O506        O  0.30459374  0.52231477  0.29505087    -0.64000
H507        H  0.28554047  0.56184127  0.30528537     0.16700
C508        C  0.30351402  0.62434355  0.31102216     0.29000
C509        C  0.28722756  0.64210753  0.31550953    -0.24900
C510        C  0.26791240  0.63818505  0.33069758    -0.24200
C511        C  0.26583209  0.61650835  0.34254605     0.40400
C512        C  0.28237873  0.59905017  0.33852895    -0.26600
O513        O  0.32105796  0.62809524  0.29457801    -0.58500
H514        H  0.28912588  0.65860942  0.30614992     0.16100
O515        O  0.24726684  0.61182913  0.35744457    -0.60000
H516        H  0.28018810  0.58233099  0.34741392     0.14500
H517        H  0.30574024  0.52250759  0.27711646     0.46400
H518        H  0.31370534  0.62616513  0.27844910     0.41700
H519        H  0.25257910  0.61613444  0.37391252     0.45200
H520        H  0.36064489  0.60738188  0.31264936     0.36700
C521        C  0.30671447  0.43354336  0.29580108    -0.27600
C522        C  0.31384912  0.41668643  0.31263739     0.02000
C523        C  0.33585989  0.41869988  0.32367079     0.30100
C524        C  0.34996815  0.43803677  0.31861491    -0.19400
C525        C  0.34213841  0.45563460  0.30292317    -0.28800
C526        C  0.32066433  0.45292052  0.29092076     0.44200
C527        C  0.29740950  0.39806164  0.31963994     0.05300
O528        O  0.34322639  0.40249950  0.34026662    -0.57300
H529        H  0.36641750  0.43995025  0.32803700     0.18300
O530        O  0.31286528  0.46943608  0.27488760    -0.64000
H531        H  0.28994910  0.43196563  0.28691585     0.16700
C532        C  0.27537204  0.40388485  0.32906017     0.29000
C533        C  0.25902290  0.38642782  0.33353569    -0.24900
C534        C  0.26440574  0.36291577  0.32916732    -0.24200
C535        C  0.28701477  0.35693092  0.32119090     0.40400
C536        C  0.30332919  0.37452604  0.31638889    -0.26600
O537        O  0.26953759  0.42668260  0.33362545    -0.58500
H538        H  0.24192929  0.39138427  0.34013903     0.16100
O539        O  0.29319875  0.33408122  0.31749973    -0.60000
H540        H  0.32037744  0.36984306  0.30945701     0.14500
H541        H  0.32029662  0.46534709  0.25915732     0.46400
H542        H  0.27585228  0.43002328  0.35000197     0.41700
H543        H  0.28997994  0.33102358  0.30017869     0.45200
H544        H  0.33513417  0.40659663  0.35554541     0.36700
C545        C  0.25156009  0.74855388  0.48826615    -0.27600
C546        C  0.26461954  0.74358290  0.46734076     0.02000
C547        C  0.28905094  0.74177442  0.46921413     0.30100
C548        C  0.29984854  0.74375088  0.49182068    -0.19400
C549        C  0.28665709  0.74720972  0.51299511    -0.28800
C550        C  0.26234297  0.75026253  0.51095684     0.44200
C551        C  0.25263913  0.73777373  0.44424988     0.05300
O552        O  0.30247597  0.73691392  0.44925148    -0.57300
H553        H  0.31858010  0.74155528  0.49284291     0.18300
O554        O  0.24876915  0.75389096  0.53106640    -0.64000
H555        H  0.23280191  0.75039530  0.48712320     0.16700
C556        C  0.23561447  0.72006626  0.44359997     0.29000
C557        C  0.22710322  0.71207619  0.42139588    -0.24900
C558        C  0.23505432  0.72160983  0.39947709    -0.24200
C559        C  0.25095512  0.74037103  0.40013664     0.40400
C560        C  0.25968179  0.74824016  0.42241037    -0.26600
O561        O  0.22849734  0.70917530  0.46445924    -0.58500
H562        H  0.21474682  0.69777631  0.42137891     0.16100
O563        O  0.25909077  0.75028803  0.37916937    -0.60000
H564        H  0.27251660  0.76210647  0.42258815     0.14500
H565        H  0.24919201  0.77098038  0.53386122     0.46400
H566        H  0.21279436  0.71557334  0.46792271     0.41700
H567        H  0.24811911  0.76321846  0.37563259     0.45200
H568        H  0.30317925  0.71965323  0.44838680     0.36700
C569        C  0.41033739  0.87612194  0.56232196    -0.27600
C570        C  0.41535320  0.85334983  0.57035530     0.02000
C571        C  0.43831955  0.84778192  0.57701254     0.30100
C572        C  0.45603862  0.86414835  0.57421787    -0.19400
C573        C  0.45151848  0.88653662  0.56494841    -0.28800
C574        C  0.42826236  0.89276737  0.55971680     0.44200
C575        C  0.39730868  0.83475811  0.57043610     0.05300
O576        O  0.44378630  0.82600504  0.58562099    -0.57300
H577        H  0.47363454  0.85899519  0.57892512     0.18300
O578        O  0.42307194  0.91436590  0.55052873    -0.64000
H579        H  0.39271556  0.88069602  0.55713817     0.16700
C580        C  0.37668573  0.83674258  0.58410899     0.29000
C581        C  0.36116385  0.81784782  0.58542929    -0.24900
C582        C  0.36599629  0.79677333  0.57335640    -0.24200
C583        C  0.38649705  0.79498229  0.55939677     0.40400
C584        C  0.40176568  0.81390736  0.55785789    -0.26600
O585        O  0.37224894  0.85650479  0.59735793    -0.58500
H586        H  0.34558931  0.81951232  0.59641498     0.16100
O587        O  0.39203140  0.77473105  0.54743427    -0.60000
H588        H  0.41748856  0.81214067  0.54710943     0.14500
H589        H  0.41928420  0.92409193  0.56483375     0.46400
H590        H  0.36018108  0.86503517  0.58814510     0.41700
H591        H  0.38402978  0.77585076  0.53157692     0.45200
H592        H  0.44315134  0.82743681  0.60350518     0.36700
C593        C  0.70373546  0.75079448  0.43423085    -0.27600
C594        C  0.72787986  0.75357331  0.43201350     0.02000
C595        C  0.74093347  0.76128647  0.45197205     0.30100
C596        C  0.72985403  0.76499779  0.47428731    -0.19400
C597        C  0.70586119  0.76064390  0.47698650    -0.28800
C598        C  0.69266704  0.75426792  0.45643903     0.44200
C599        C  0.73906868  0.74534319  0.40958168     0.05300
O600        O  0.76448918  0.76486494  0.44986446    -0.57300
H601        H  0.74025773  0.77024168  0.48972393     0.18300
O602        O  0.66920532  0.74991728  0.45808328    -0.64000
H603        H  0.69358792  0.74470049  0.41892528     0.16700
C604        C  0.75038577  0.72358173  0.40926531     0.29000
C605        C  0.75538640  0.71278647  0.38716047    -0.24900
C606        C  0.74919964  0.72347495  0.36519006    -0.24200
C607        C  0.73991734  0.74628545  0.36559847     0.40400
C608        C  0.73455276  0.75687881  0.38773628    -0.26600
O609        O  0.75519618  0.71204967  0.43045658    -0.58500
H610        H  0.76300426  0.69548779  0.38729574     0.16100
O611        O  0.73472732  0.75785975  0.34455649    -0.60000
H612        H  0.72583041  0.77365139  0.38785857     0.14500
H613        H  0.66159961  0.76518664  0.45530635     0.46400
H614        H  0.74097325  0.70291023  0.43415556     0.41700
H615        H  0.74946179  0.76562675  0.33971363     0.45200
H616        H  0.77188243  0.75121841  0.45787305     0.36700
C617        C  0.61558092  0.84999850  0.53926202    -0.27600
C618        C  0.59280493  0.84417407  0.54640292     0.02000
C619        C  0.58814834  0.82127707  0.55438809     0.30100
C620        C  0.60567331  0.80442629  0.55401219    -0.19400
C621        C  0.62830021  0.80994356  0.54625975    -0.28800
C622        C  0.63331797  0.83309980  0.53922769     0.44200
C623        C  0.57353323  0.86137532  0.54444528     0.05300
O624        O  0.56636891  0.81507422  0.56241362    -0.57300
H625        H  0.60146070  0.78688448  0.55987639     0.18300
O626        O  0.65530078  0.83934567  0.53191362    -0.64000
H627        H  0.61948531  0.86747745  0.53301189     0.16700
C628        C  0.57459344  0.88353288  0.55553038     0.29000
C629        C  0.55479818  0.89797950  0.55574857    -0.24900
C630        C  0.53385004  0.89046777  0.54514868    -0.24200
C631        C  0.53339218  0.86899955  0.53269401     0.40400
C632        C  0.55310635  0.85479227  0.53229827    -0.26600
O633        O  0.59419004  0.89040092  0.56781964    -0.58500
H634        H  0.55543007  0.91438964  0.56548308     0.16100
O635        O  0.51343699  0.86129264  0.52159040    -0.60000
H636        H  0.55218202  0.83811963  0.52307199     0.14500
H637        H  0.65527866  0.83747626  0.51406447     0.46400
H638        H  0.60211770  0.90165415  0.55693552     0.41700
H639        H  0.51478422  0.86656982  0.50451869     0.45200
H640        H  0.56583219  0.82003686  0.57961737     0.36700
C641        C  0.69569885  0.28545296  0.44160442    -0.27600
C642        C  0.71914728  0.28119662  0.43582799     0.02000
C643        C  0.73487900  0.27550661  0.45444923     0.30100
C644        C  0.72735559  0.27529224  0.47850504    -0.19400
C645        C  0.70408794  0.28035278  0.48440379    -0.28800
C646        C  0.68801725  0.28470156  0.46561873     0.44200
C647        C  0.72729313  0.28462723  0.41066127     0.05300
O648        O  0.75778198  0.27067267  0.44937036    -0.57300
H649        H  0.73991562  0.27153835  0.49261790     0.18300
O650        O  0.66504774  0.28940024  0.47052711    -0.64000
H651        H  0.68342235  0.29018979  0.42754909     0.16700
C652        C  0.71587264  0.27395464  0.39101143     0.29000
C653        C  0.72241299  0.27947112  0.36727436    -0.24900
C654        C  0.73996976  0.29595880  0.36277471    -0.24200
C655        C  0.75216524  0.30577917  0.38249519     0.40400
C656        C  0.74568563  0.30016633  0.40617828    -0.26600
O657        O  0.69833289  0.25810317  0.39488036    -0.58500
H658        H  0.71301555  0.27153776  0.35238083     0.16100
O659        O  0.76975783  0.32163107  0.37890620    -0.60000
H660        H  0.75450763  0.30869795  0.42110274     0.14500
H661        H  0.65689514  0.27422806  0.46871766     0.46400
H662        H  0.68377919  0.26616179  0.39004225     0.41700
H663        H  0.78442618  0.31267548  0.38108749     0.45200
H664        H  0.75828935  0.25361625  0.44637350     0.36700
C665        C  0.66564197  0.59416329  0.53640308    -0.27600
C666        C  0.65195288  0.61066743  0.54888529     0.02000
C667        C  0.63215455  0.60296871  0.56165530     0.30100
C668        C  0.62535381  0.57967310  0.56043034    -0.19400
C669        C  0.63808598  0.56336887  0.54678670    -0.28800
C670        C  0.65882855  0.57058723  0.53530240     0.44200
C671        C  0.65707200  0.63606102  0.54720715     0.05300
O672        O  0.61880796  0.61829161  0.57479874    -0.57300
H673        H  0.60956283  0.57446227  0.56977027     0.18300
O674        O  0.67185264  0.55514331  0.52197293    -0.64000
H675        H  0.68098002  0.59974799  0.52652343     0.16700
C676        C  0.67907141  0.64530621  0.55316222     0.29000
C677        C  0.68287784  0.66948027  0.55200562    -0.24900
C678        C  0.66483144  0.68483233  0.54535230    -0.24200
C679        C  0.64286934  0.67548556  0.53929859     0.40400
C680        C  0.63923449  0.65137750  0.54007357    -0.26600
O681        O  0.69677925  0.63096247  0.56066239    -0.58500
H682        H  0.69987988  0.67625626  0.55683382     0.16100
O683        O  0.62470548  0.68971182  0.53278051    -0.60000
H684        H  0.62226137  0.64458960  0.53513099     0.14500
H685        H  0.66524094  0.55576430  0.50538712     0.46400
H686        H  0.69514359  0.63008846  0.57853820     0.41700
H687        H  0.62522643  0.69034953  0.51482601     0.45200
H688        H  0.62608059  0.61876327  0.59108572     0.36700
C689        C  0.66679445  0.44837164  0.55791151    -0.27600
C690        C  0.65877365  0.43093929  0.54211882     0.02000
C691        C  0.64389846  0.43701205  0.52289523     0.30100
C692        C  0.63584924  0.45989818  0.52072092    -0.19400
C693        C  0.64269227  0.47710263  0.53736065    -0.28800
C694        C  0.65877112  0.47139268  0.55567622     0.44200
C695        C  0.66412807  0.40615755  0.54692058     0.05300
O696        O  0.63628104  0.42042128  0.50682112    -0.57300
H697        H  0.62343927  0.46402960  0.50656684     0.18300
O698        O  0.66536480  0.48771410  0.57250754    -0.64000
H699        H  0.67821194  0.44385691  0.57281109     0.16700
C700        C  0.68708931  0.39765579  0.54619211     0.29000
C701        C  0.69131904  0.37377957  0.54935970    -0.24900
C702        C  0.67282243  0.35813653  0.55341874    -0.24200
C703        C  0.64991835  0.36694999  0.55520547     0.40400
C704        C  0.64574091  0.39072888  0.55176770    -0.26600
O705        O  0.70541638  0.41244802  0.54188227    -0.58500
H706        H  0.70907799  0.36745489  0.54814985     0.16100
O707        O  0.63138950  0.35248728  0.55982175    -0.60000
H708        H  0.62800417  0.39718061  0.55276317     0.14500
H709        H  0.65462500  0.48545675  0.58640556     0.46400
H710        H  0.70712622  0.41284292  0.52400385     0.41700
H711        H  0.62952405  0.35267067  0.57766152     0.45200
H712        H  0.64826199  0.42003516  0.49385226     0.36700
C713        C  0.36513328  0.63919040  0.58013078    -0.27600
C714        C  0.34829835  0.62341902  0.57168521     0.02000
C715        C  0.32587700  0.63145684  0.56598556     0.30100
C716        C  0.32045498  0.65507743  0.56881636    -0.19400
C717        C  0.33734859  0.67106150  0.57692264    -0.28800
C718        C  0.35987416  0.66288255  0.58266954     0.44200
C719        C  0.35495357  0.59897972  0.56717950     0.05300
O720        O  0.30940856  0.61649421  0.55688228    -0.57300
H721        H  0.30311580  0.66097380  0.56405047     0.18300
O722        O  0.37710317  0.67791735  0.58996656    -0.64000
H723        H  0.38255918  0.63314000  0.58436113     0.16700
C724        C  0.37237332  0.59394454  0.55012538     0.29000
C725        C  0.38007010  0.57110901  0.54720550    -0.24900
C726        C  0.37096297  0.55294950  0.56144422    -0.24200
C727        C  0.35246108  0.55770811  0.57752252     0.40400
C728        C  0.34450828  0.58073129  0.58025774    -0.26600
O729        O  0.38194264  0.61131046  0.53619197    -0.58500
H730        H  0.39390536  0.56775469  0.53427658     0.16100
O731        O  0.34276471  0.54031942  0.59130271    -0.60000
H732        H  0.33083750  0.58448812  0.59324485     0.14500
H733        H  0.37714991  0.67702713  0.60787839     0.46400
H734        H  0.39728228  0.61478299  0.54371035     0.41700
H735        H  0.35074175  0.54127349  0.60720513     0.45200
H736        H  0.31201986  0.61640918  0.53911540     0.36700
C737        C  0.47998573  0.49629561  0.53479014    -0.27600
C738        C  0.49288711  0.51411571  0.54594111     0.02000
C739        C  0.48128018  0.53109673  0.55990112     0.30100
C740        C  0.45712593  0.53005684  0.56258560    -0.19400
C741        C  0.44431416  0.51190026  0.55196055    -0.28800
C742        C  0.45583810  0.49505874  0.53778993     0.44200
C743        C  0.51847822  0.51464921  0.54328628     0.05300
O744        O  0.49344811  0.54844813  0.57144267    -0.57300
H745        H  0.44846387  0.54311272  0.57359408     0.18300
O746        O  0.44365910  0.47751288  0.52659052    -0.64000
H747        H  0.48868617  0.48332912  0.52371112     0.16700
C748        C  0.53211048  0.49515188  0.54955413     0.29000
C749        C  0.55635909  0.49618412  0.54741974    -0.24900
C750        C  0.56740199  0.51669561  0.53949624    -0.24200
C751        C  0.55364014  0.53614346  0.53303931     0.40400
C752        C  0.52940529  0.53496893  0.53490695    -0.26600
O753        O  0.52193787  0.47521181  0.55835331    -0.58500
H754        H  0.56656194  0.48112139  0.55271218     0.16100
O755        O  0.56362283  0.55643636  0.52492098    -0.60000
H756        H  0.51907651  0.55001418  0.52980883     0.14500
H757        H  0.43801306  0.48436514  0.51122642     0.46400
H758        H  0.51935817  0.47823179  0.57585624     0.41700
H759        H  0.56648141  0.55387891  0.50740322     0.45200
H760        H  0.49734603  0.54198701  0.58759578     0.36700
C761        C  0.21032118  0.30147747  0.44763975    -0.27600
C762        C  0.22999759  0.28845277  0.45423701     0.02000
C763        C  0.24386713  0.27815249  0.43605282     0.30100
C764        C  0.23839471  0.28160595  0.41167133    -0.19400
C765        C  0.21944436  0.29565358  0.40508471    -0.28800
C766        C  0.20500925  0.30517292  0.42327405     0.44200
C767        C  0.23700142  0.28717307  0.47993907     0.05300
O768        O  0.26340766  0.26556239  0.44188775    -0.57300
H769        H  0.24968959  0.27423320  0.39790625     0.18300
O770        O  0.18597793  0.31854478  0.41748738    -0.64000
H771        H  0.19933326  0.30922417  0.46144875     0.16700
C772        C  0.24106877  0.30771560  0.49326060     0.29000
C773        C  0.25042103  0.30634971  0.51653977    -0.24900
C774        C  0.25589921  0.28467284  0.52690769    -0.24200
C775        C  0.25065126  0.26405477  0.51404767     0.40400
C776        C  0.24127246  0.26543711  0.49072482    -0.26600
O777        O  0.23776994  0.32924121  0.48293679    -0.58500
H778        H  0.25451104  0.32242717  0.52596147     0.16100
O779        O  0.25567071  0.24251463  0.52350459    -0.60000
H780        H  0.23796059  0.24950435  0.48072412     0.14500
H781        H  0.17335119  0.30722811  0.41395692     0.46400
H782        H  0.22333450  0.33542404  0.49040958     0.41700
H783        H  0.24258586  0.23898048  0.53465821     0.45200
H784        H  0.27599269  0.27725515  0.44364719     0.36700
C785        C  0.34104197  0.44001396  0.57092224    -0.27600
C786        C  0.35575649  0.42143007  0.57730351     0.02000
C787        C  0.37967628  0.42559150  0.58057724     0.30100
C788        C  0.38869537  0.44787303  0.57689015    -0.19400
C789        C  0.37420594  0.46651218  0.56994864    -0.28800
C790        C  0.35009459  0.46244259  0.56715066     0.44200
C791        C  0.34640188  0.39749402  0.57939049     0.05300
O792        O  0.39447600  0.40788070  0.58712433    -0.57300
H793        H  0.40723967  0.45046911  0.57941837     0.18300
O794        O  0.33532494  0.47996202  0.56006051    -0.64000
H795        H  0.32260772  0.43696294  0.56809635     0.16700
C796        C  0.32822935  0.39217999  0.59557831     0.29000
C797        C  0.31993380  0.36927442  0.59725666    -0.24900
C798        C  0.32949220  0.35145186  0.58284745    -0.24200
C799        C  0.34780545  0.35681508  0.56674329     0.40400
C800        C  0.35599857  0.37970851  0.56503371    -0.26600
O801        O  0.31905077  0.40908524  0.61038487    -0.58500
H802        H  0.30597737  0.36546516  0.60988894     0.16100
O803        O  0.35717236  0.34007962  0.55185358    -0.60000
H804        H  0.36980322  0.38365561  0.55225936     0.14500
H805        H  0.33558970  0.47960657  0.54210194     0.46400
H806        H  0.30391345  0.41336702  0.60295027     0.41700
H807        H  0.37154796  0.33481789  0.56011274     0.45200
H808        H  0.39372419  0.40729460  0.60503273     0.36700
C809        C  0.51242983  0.05046114  0.57114060    -0.27600
C810        C  0.49275320  0.03938538  0.56135418     0.02000
C811        C  0.47360628  0.05307113  0.55412336     0.30100
C812        C  0.47407557  0.07729510  0.55727405    -0.19400
C813        C  0.49368622  0.08847144  0.56723081    -0.28800
C814        C  0.51305979  0.07473688  0.57404736     0.44200
C815        C  0.49207721  0.01353981  0.55938308     0.05300
O816        O  0.45436100  0.04294464  0.54380257    -0.57300
H817        H  0.45907266  0.08737835  0.55159895     0.18300
O818        O  0.53259014  0.08470505  0.58393306    -0.64000
H819        H  0.52722565  0.04019634  0.57704068     0.16700
C820        C  0.50977348  0.00116126  0.54727040     0.29000
C821        C  0.50890047  0.97675873  0.54603335    -0.24900
C822        C  0.49055853  0.96414375  0.55685424    -0.24200
C823        C  0.47276071  0.97667175  0.56886124     0.40400
C824        C  0.47369872  0.00108588  0.57011017    -0.26600
O825        O  0.52753548  0.01282477  0.53582188    -0.58500
H826        H  0.52268211  0.96772296  0.53642295     0.16100
O827        O  0.45485620  0.96529591  0.58032590    -0.60000
H828        H  0.46013433  0.01034231  0.57984148     0.14500
H829        H  0.52992084  0.08452605  0.60166737     0.46400
H830        H  0.54142297  0.01059846  0.54627301     0.41700
H831        H  0.44175348  0.96554212  0.56866481     0.45200
H832        H  0.45840866  0.04094105  0.52646347     0.36700
C833        C  0.38796206  0.22386177  0.55386292    -0.27600
C834        C  0.38833820  0.20414766  0.56885486     0.02000
C835        C  0.36944816  0.19956127  0.58428446     0.30100
C836        C  0.35085831  0.21522540  0.58543985    -0.19400
C837        C  0.35078576  0.23556759  0.57123769    -0.28800
C838        C  0.36925955  0.23950463  0.55482785     0.44200
C839        C  0.40948393  0.18974228  0.57017000     0.05300
O840        O  0.36978482  0.18066975  0.59951094    -0.57300
H841        H  0.33684572  0.21180816  0.59812493     0.18300
O842        O  0.36957009  0.25881200  0.54015052    -0.64000
H843        H  0.40252523  0.22744644  0.54191077     0.16700
C844        C  0.41023681  0.16721349  0.56015908     0.29000
C845        C  0.43052912  0.15378112  0.56226170    -0.24900
C846        C  0.45028061  0.16274888  0.57410627    -0.24200
C847        C  0.44910981  0.18524379  0.58462651     0.40400
C848        C  0.42888562  0.19855291  0.58242132    -0.26600
O849        O  0.39132884  0.15831946  0.54810956    -0.58500
H850        H  0.43102599  0.13663904  0.55399556     0.16100
O851        O  0.46761205  0.19449904  0.59709666    -0.60000
H852        H  0.42824856  0.21579340  0.59048863     0.14500
H853        H  0.37762759  0.27105127  0.54966826     0.46400
H854        H  0.39279585  0.16421531  0.53126120     0.41700
H855        H  0.46644173  0.18790329  0.61361827     0.45200
H856        H  0.36257297  0.16774307  0.59008333     0.36700
C857        C  0.57751003  0.16834029  0.57562827    -0.27600
C858        C  0.57537505  0.19268962  0.57432124     0.02000
C859        C  0.55312113  0.20280919  0.57322295     0.30100
C860        C  0.53337432  0.18863499  0.57349423    -0.19400
C861        C  0.53524324  0.16415769  0.57490334    -0.28800
C862        C  0.55767479  0.15406391  0.57615588     0.44200
C863        C  0.59638533  0.20751069  0.57317649     0.05300
O864        O  0.55057421  0.22648703  0.57049272    -0.57300
H865        H  0.51651629  0.19704424  0.57218376     0.18300
O866        O  0.56053516  0.13036715  0.57767166    -0.64000
H867        H  0.59463636  0.16039793  0.57636403     0.16700
C868        C  0.60019824  0.22524712  0.59038717     0.29000
C869        C  0.61885683  0.24067714  0.58749874    -0.24900
C870        C  0.63422944  0.23833421  0.56785448    -0.24200
C871        C  0.63091516  0.21997407  0.55117589     0.40400
C872        C  0.61209714  0.20471687  0.55394649    -0.26600
O873        O  0.58559702  0.22782253  0.60990375    -0.58500
H874        H  0.62128534  0.25453132  0.60062251     0.16100
O875        O  0.64546476  0.21723034  0.53164073    -0.60000
H876        H  0.60930586  0.19113674  0.54059000     0.14500
H877        H  0.56133468  0.12696221  0.59525940     0.46400
H878        H  0.59054630  0.21570511  0.62163399     0.41700
H879        H  0.63919038  0.22774437  0.51900243     0.45200
H880        H  0.54371007  0.23211673  0.58595304     0.36700
C881        C  0.74464765  0.73493795  0.14156100    -0.27600
C882        C  0.75714592  0.73968848  0.16280263     0.02000
C883        C  0.77917369  0.75031790  0.16131581     0.30100
C884        C  0.78890057  0.75511595  0.13873136    -0.19400
C885        C  0.77704473  0.74929255  0.11733875    -0.28800
C886        C  0.75442960  0.73970856  0.11885098     0.44200
C887        C  0.74911154  0.73029726  0.18614981     0.05300
O888        O  0.79224489  0.75399620  0.18177126    -0.57300
H889        H  0.80630840  0.76242282  0.13804653     0.18300
O890        O  0.74202336  0.73432613  0.09836919    -0.64000
H891        H  0.72770672  0.72663260  0.14260239     0.16700
C892        C  0.74565523  0.74494445  0.20625158     0.29000
C893        C  0.74351366  0.73525624  0.22936390    -0.24900
C894        C  0.74490592  0.71098121  0.23270384    -0.24200
C895        C  0.74664352  0.69630874  0.21224763     0.40400
C896        C  0.74855059  0.70604879  0.18915910    -0.26600
O897        O  0.74578088  0.76873746  0.20363646    -0.58500
H898        H  0.74193960  0.74684772  0.24479038     0.16100
O899        O  0.74736983  0.67248990  0.21462026    -0.60000
H900        H  0.75119700  0.69463955  0.17372921     0.14500
H901        H  0.74526403  0.71763908  0.09524011     0.46400
H902        H  0.72926373  0.77305002  0.20053580     0.41700
H903        H  0.76410339  0.66837035  0.21407447     0.45200
H904        H  0.79166085  0.77113117  0.18465066     0.36700
C905        C  0.90282107  0.69008463  0.06627118    -0.27600
C906        C  0.89590209  0.66665591  0.06659345     0.02000
C907        C  0.87212248  0.66106063  0.06463554     0.30100
C908        C  0.85555102  0.67892484  0.06251117    -0.19400
C909        C  0.86244947  0.70248169  0.06210220    -0.28800
C910        C  0.88637464  0.70793005  0.06403292     0.44200
C911        C  0.91378746  0.64838247  0.06970934     0.05300
O912        O  0.86490571  0.63826455  0.06572153    -0.57300
H913        H  0.83728106  0.67430955  0.06123098     0.18300
O914        O  0.89400398  0.73059877  0.06327524    -0.64000
H915        H  0.92112863  0.69454632  0.06769827     0.16700
C916        C  0.91895126  0.63245653  0.05102458     0.29000
C917        C  0.93688980  0.61611569  0.05406872    -0.24900
C918        C  0.95029695  0.61603703  0.07530094    -0.24200
C919        C  0.94508566  0.63197954  0.09395447     0.40400
C920        C  0.92685876  0.64790589  0.09113064    -0.26600
O921        O  0.90732115  0.63347773  0.02936162    -0.58500
H922        H  0.94118487  0.60438948  0.03931575     0.16100
O923        O  0.95812430  0.63250597  0.11476675    -0.60000
H924        H  0.92318105  0.66025404  0.10551479     0.14500
H925        H  0.89500744  0.73558261  0.08043045     0.46400
H926        H  0.91662870  0.64427530  0.01912328     0.41700
H927        H  0.94997603  0.62199922  0.12615982     0.45200
H928        H  0.86168449  0.63373653  0.04870605     0.36700
C929        C  0.20847528  0.70643214  0.22255589    -0.27600
C930        C  0.20937058  0.73041812  0.21806216     0.02000
C931        C  0.21350716  0.74598668  0.23723842     0.30100
C932        C  0.21597614  0.73744336  0.26087337    -0.19400
C933        C  0.21423361  0.71338572  0.26562040    -0.28800
C934        C  0.21072561  0.69784309  0.24608455     0.44200
C935        C  0.20382125  0.73881665  0.19357645     0.05300
O936        O  0.21456761  0.76955545  0.23311111    -0.57300
H937        H  0.21875897  0.74969526  0.27553903     0.18300
O938        O  0.20919431  0.67421727  0.24972558    -0.64000
H939        H  0.20520472  0.69435762  0.20782260     0.16700
C940        C  0.21948613  0.73558000  0.17430690     0.29000
C941        C  0.21254498  0.74073963  0.15063319    -0.24900
C942        C  0.18984717  0.74871657  0.14583990    -0.24200
C943        C  0.17443286  0.75264145  0.16538960     0.40400
C944        C  0.18151672  0.74767553  0.18903744    -0.26600
O945        O  0.24150651  0.72718440  0.17846215    -0.58500
H946        H  0.22472242  0.73774584  0.13594257     0.16100
O947        O  0.15212087  0.76041597  0.16159299    -0.60000
H948        H  0.16926357  0.74991679  0.20381735     0.14500
H949        H  0.19232331  0.67091593  0.25111639     0.46400
H950        H  0.24035422  0.71004141  0.17600205     0.41700
H951        H  0.15304949  0.77762749  0.16295301     0.45200
H952        H  0.23111628  0.77272205  0.22895806     0.36700
C953        C  0.08570712  0.68074618  0.06372915    -0.27600
C954        C  0.09075426  0.66178238  0.07891065     0.02000
C955        C  0.11230748  0.66087289  0.09090047     0.30100
C956        C  0.12826920  0.67916418  0.08813227    -0.19400
C957        C  0.12282609  0.69866455  0.07376635    -0.28800
C958        C  0.10154958  0.69910494  0.06106667     0.44200
C959        C  0.07248262  0.64415714  0.08333719     0.05300
O960        O  0.11755665  0.64263319  0.10600294    -0.57300
H961        H  0.14455053  0.67852033  0.09803945     0.18300
O962        O  0.09591098  0.71749914  0.04630331    -0.64000
H963        H  0.06917333  0.68150406  0.05427954     0.16700
C964        C  0.05178039  0.65078794  0.09500406     0.29000
C965        C  0.03304843  0.63533196  0.09604721    -0.24900
C966        C  0.03427789  0.61321665  0.08502349    -0.24200
C967        C  0.05568061  0.60593878  0.07482827     0.40400
C968        C  0.07468443  0.62141450  0.07417087    -0.26600
O969        O  0.04958204  0.67260483  0.10501821    -0.58500
H970        H  0.01705407  0.64121486  0.10454187     0.16100
O971        O  0.05788963  0.58435694  0.06433392    -0.60000
H972        H  0.09070026  0.61611391  0.06532056     0.14500
H973        H  0.10053087  0.71251242  0.02980425     0.46400
H974        H  0.04057952  0.68186459  0.09298119     0.41700
H975        H  0.05471611  0.58685039  0.04686632     0.45200
H976        H  0.11223447  0.64767397  0.12228858     0.36700
C977        C  0.21623813  0.27936706  0.22534101    -0.27600
C978        C  0.21267785  0.25524353  0.22483786     0.02000
C979        C  0.21169864  0.24262988  0.24662299     0.30100
C980        C  0.21349075  0.25441206  0.26876879    -0.19400
C981        C  0.21589252  0.27881260  0.26937086    -0.28800
C982        C  0.21784035  0.29120294  0.24734916     0.44200
C983        C  0.20771060  0.24404400  0.20146634     0.05300
O984        O  0.20889933  0.21885995  0.24636913    -0.57300
H985        H  0.21217916  0.24454338  0.28544497     0.18300
O986        O  0.22044123  0.31499533  0.24703531    -0.64000
H987        H  0.21689234  0.28917868  0.20857228     0.16700
C988        C  0.18477457  0.23755081  0.19565908     0.29000
C989        C  0.17961110  0.22942867  0.17244926    -0.24900
C990        C  0.19707384  0.22794531  0.15464007    -0.24200
C991        C  0.22018509  0.23403497  0.16070467     0.40400
C992        C  0.22530482  0.24219278  0.18398370    -0.26600
O993        O  0.16712905  0.23992333  0.21228868    -0.58500
H994        H  0.16171183  0.22503016  0.16818212     0.16100
O995        O  0.23770838  0.23300787  0.14382223    -0.60000
H996        H  0.24294007  0.24754935  0.18827743     0.14500
H997        H  0.23746889  0.31767549  0.24690970     0.46400
H998        H  0.16264733  0.25659489  0.21169621     0.41700
H999        H  0.24541591  0.21774732  0.14653310     0.45200
H1000       H  0.19193050  0.21623970  0.24852028     0.36700
C1001       C  0.74104047  0.25571838  0.13950206    -0.27600
C1002       C  0.75144445  0.24773032  0.16096949     0.02000
C1003       C  0.76740098  0.22910223  0.15980263     0.30100
C1004       C  0.77411612  0.22004233  0.13731370    -0.19400
C1005       C  0.76504796  0.22920018  0.11566349    -0.28800
C1006       C  0.74756965  0.24648485  0.11697889     0.44200
C1007       C  0.74788395  0.26066882  0.18397822     0.05300
O1008       O  0.77752959  0.22046690  0.18043964    -0.57300
H1009       H  0.78728887  0.20650257  0.13681918     0.18300
O1010       O  0.73781266  0.25555974  0.09637145    -0.64000
H1011       H  0.72845661  0.26980436  0.14014656     0.16700
C1012       C  0.75377871  0.28447030  0.18542774     0.29000
C1013       C  0.75252814  0.29617348  0.20760479    -0.24900
C1014       C  0.74573391  0.28448498  0.22882355    -0.24200
C1015       C  0.73974292  0.26063151  0.22739220     0.40400
C1016       C  0.74061173  0.24898640  0.20503042    -0.26600
O1017       O  0.76239935  0.29602502  0.16558685    -0.58500
H1018       H  0.75761982  0.31436825  0.20825990     0.16100
O1019       O  0.73319638  0.24846772  0.24767341    -0.60000
H1020       H  0.73612364  0.23063932  0.20421453     0.14500
H1021       H  0.72356331  0.24614312  0.09356006     0.46400
H1022       H  0.74916232  0.30547882  0.15938400     0.41700
H1023       H  0.74769860  0.24113713  0.25371890     0.45200
H1024       H  0.79058503  0.23120022  0.18406701     0.36700
C1025       C  0.13417008  0.11467939  0.06153771    -0.27600
C1026       C  0.14551383  0.09722350  0.07475662     0.02000
C1027       C  0.16476703  0.10306242  0.08933011     0.30100
C1028       C  0.17226824  0.12633358  0.09070311    -0.19400
C1029       C  0.16038286  0.14393651  0.07800588    -0.28800
C1030       C  0.14139929  0.13782976  0.06306650     0.44200
C1031       C  0.13619490  0.07325470  0.07371671     0.05300
O1032       O  0.17587037  0.08632102  0.10280049    -0.57300
H1033       H  0.18684066  0.13072715  0.10230781     0.18300
O1034       O  0.12957124  0.15438425  0.04999956    -0.64000
H1035       H  0.11941933  0.11032442  0.05014151     0.16700
C1036       C  0.11313736  0.06885925  0.08104957     0.29000
C1037       C  0.10326969  0.04695680  0.07721088    -0.24900
C1038       C  0.11614364  0.02899431  0.06625481    -0.24200
C1039       C  0.13957996  0.03309962  0.05971696     0.40400
C1040       C  0.14948353  0.05517469  0.06355999    -0.26600
O1041       O  0.09988774  0.08611289  0.09142606    -0.58500
H1042       H  0.08533379  0.04409014  0.08262688     0.16100
O1043       O  0.15259563  0.01606674  0.04865286    -0.60000
H1044       H  0.16721420  0.05846413  0.05770196     0.14500
H1045       H  0.13897128  0.15679255  0.03514812     0.46400
H1046       H  0.10408121  0.08591624  0.10885281     0.41700
H1047       H  0.15131400  0.01927475  0.03104248     0.45200
H1048       H  0.16590531  0.08403010  0.11729624     0.36700
C1049       C  0.12278641  0.85593649  0.06998752    -0.27600
C1050       C  0.14034436  0.87288010  0.06860475     0.02000
C1051       C  0.16381664  0.86598502  0.07077048     0.30100
C1052       C  0.16938364  0.84223936  0.07304563    -0.19400
C1053       C  0.15173393  0.82516621  0.07317404    -0.28800
C1054       C  0.12825400  0.83233080  0.07197646     0.44200
C1055       C  0.13355003  0.89743248  0.06412420     0.05300
O1056       O  0.18139882  0.88219989  0.07024526    -0.57300
H1057       H  0.18753822  0.83717057  0.07424567     0.18300
O1058       O  0.11038775  0.81644993  0.07274128    -0.64000
H1059       H  0.10461388  0.86102420  0.06915848     0.16700
C1060       C  0.11858715  0.90290874  0.04471663     0.29000
C1061       C  0.11000575  0.92555135  0.04212933    -0.24900
C1062       C  0.11615490  0.94310350  0.05861229    -0.24200
C1063       C  0.13180781  0.93792348  0.07751966     0.40400
C1064       C  0.14044748  0.91517946  0.08014040    -0.26600
O1065       O  0.11244523  0.88620499  0.02805914    -0.58500
H1066       H  0.09815171  0.92930637  0.02736032     0.16100
O1067       O  0.13779456  0.95457949  0.09424634    -0.60000
H1068       H  0.15172307  0.91117505  0.09530796     0.14500
H1069       H  0.10677597  0.81292212  0.05552332     0.46400
H1070       H  0.09575615  0.88279924  0.03119579     0.41700
H1071       H  0.12529755  0.95406722  0.10665058     0.45200
H1072       H  0.18511053  0.88437546  0.05283393     0.36700
C1073       C  0.84497187  0.07124146  0.01761728    -0.27600
C1074       C  0.82546181  0.07162253  0.03286362     0.02000
C1075       C  0.81574861  0.05047598  0.04095117     0.30100
C1076       C  0.82643005  0.02926557  0.03469744    -0.19400
C1077       C  0.84693951  0.02904745  0.02069101    -0.28800
C1078       C  0.85570859  0.05025613  0.01152263     0.44200
C1079       C  0.81712812  0.09448219  0.04157865     0.05300
O1080       O  0.79654237  0.05041326  0.05576555    -0.57300
H1081       H  0.81942223  0.01313325  0.04188073     0.18300
O1082       O  0.87525234  0.05077375  0.99719195    -0.64000
H1083       H  0.85239667  0.08745042  0.01106449     0.16700
C1084       C  0.83222774  0.10869651  0.05515902     0.29000
C1085       C  0.82666949  0.13204359  0.05924674    -0.24900
C1086       C  0.80595578  0.14162504  0.05013131    -0.24200
C1087       C  0.78993488  0.12686963  0.03811054     0.40400
C1088       C  0.79561938  0.10338611  0.03392238    -0.26600
O1089       O  0.85313209  0.10019908  0.06336885    -0.58500
H1090       H  0.83907998  0.14289044  0.06883543     0.16100
O1091       O  0.76917252  0.13536350  0.02953192    -0.60000
H1092       H  0.78382819  0.09250574  0.02355917     0.14500
H1093       H  0.86942189  0.04900872  0.98036306     0.46400
H1094       H  0.84935406  0.09186445  0.07861603     0.41700
H1095       H  0.77222650  0.13957612  0.01239526     0.45200
H1096       H  0.80268141  0.05315628  0.07232225     0.36700
C1097       C  0.85003789  0.85893117  0.03990686    -0.27600
C1098       C  0.83122082  0.87321470  0.03325641     0.02000
C1099       C  0.80856571  0.86377319  0.03314645     0.30100
C1100       C  0.80520075  0.84015312  0.03882547    -0.19400
C1101       C  0.82416570  0.82569604  0.04480230    -0.28800
C1102       C  0.84671898  0.83540554  0.04551450     0.44200
C1103       C  0.83609025  0.89752686  0.02555325     0.05300
O1104       O  0.78988738  0.87705467  0.02602864    -0.57300
H1105       H  0.78772173  0.83304147  0.03799884     0.18300
O1106       O  0.86573438  0.82207371  0.05143409    -0.64000
H1107       H  0.86755285  0.86600657  0.04039467     0.16700
C1108       C  0.82524852  0.91684528  0.03669021     0.29000
C1109       C  0.83269138  0.93950545  0.03117083    -0.24900
C1110       C  0.85139211  0.94319248  0.01519588    -0.24200
C1111       C  0.86126568  0.92398858  0.00302003     0.40400
C1112       C  0.85356272  0.90142856  0.00818672    -0.26600
O1113       O  0.80849424  0.91379602  0.05413382    -0.58500
H1114       H  0.82497157  0.95407863  0.04078550     0.16100
O1115       O  0.87911065  0.92699889  0.98675423    -0.60000
H1116       H  0.86187639  0.88680093  0.99920920     0.14500
H1117       H  0.87254884  0.81716554  0.03575249     0.46400
H1118       H  0.81719785  0.91165566  0.06949925     0.41700
H1119       H  0.87142502  0.92852846  0.97077654     0.45200
H1120       H  0.77989464  0.87867449  0.04069275     0.36700
C1121       C  0.00712935  0.96785351  0.03791892    -0.27600
C1122       C  0.99652065  0.98913160  0.03196709     0.02000
C1123       C  0.00997040  0.00971528  0.03245256     0.30100
C1124       C  0.03358427  0.00874529  0.03862954    -0.19400
C1125       C  0.04435883  0.98739079  0.04431398    -0.28800
C1126       C  0.03071245  0.96683961  0.04416350     0.44200
C1127       C  0.97120930  0.98974267  0.02646708     0.05300
O1128       O  0.00024964  0.03091768  0.02689236    -0.57300
H1129       H  0.04350779  0.02482526  0.03872564     0.18300
O1130       O  0.04002307  0.94564490  0.05041637    -0.64000
H1131       H  0.99693461  0.95194303  0.03830205     0.16700
C1132       C  0.96107581  0.97407372  0.00978366     0.29000
C1133       C  0.93690311  0.97397852  0.00629229    -0.24900
C1134       C  0.92256970  0.98980792  0.01874987    -0.24200
C1135       C  0.93279030  0.00582448  0.03498238     0.40400
C1136       C  0.95683534  0.00557247  0.03883135    -0.26600
O1137       O  0.97460119  0.95872249  0.99687297    -0.58500
H1138       H  0.92934499  0.96157817  0.99372570     0.16100
O1139       O  0.91936855  0.02124407  0.04793786    -0.60000
H1140       H  0.96418636  0.01741314  0.05208520     0.14500
H1141       H  0.03823257  0.94464829  0.06827968     0.46400
H1142       H  0.98113569  0.96797875  0.98329503     0.41700
H1143       H  0.91530520  0.01302048  0.06298993     0.45200
H1144       H  0.99951676  0.03135119  0.00895221     0.36700
C1145       C  0.00456119  0.45201939  0.04766967    -0.27600
C1146       C  0.98786753  0.46507740  0.06047762     0.02000
C1147       C  0.97057618  0.45325035  0.07379176     0.30100
C1148       C  0.97031864  0.42884749  0.07445646    -0.19400
C1149       C  0.98750501  0.41575351  0.06244633    -0.28800
C1150       C  0.00454824  0.42754789  0.04867144     0.44200
C1151       C  0.98942893  0.49094647  0.06137737     0.05300
O1152       O  0.95439914  0.46540701  0.08706733    -0.57300
H1153       H  0.95716885  0.42016062  0.08529212     0.18300
O1154       O  0.02135730  0.41537602  0.03629016    -0.64000
H1155       H  0.01785823  0.46085096  0.03716703     0.16700
C1156       C  0.00936289  0.50196506  0.07081890     0.29000
C1157       C  0.00981775  0.52625654  0.07373260    -0.24900
C1158       C  0.99055971  0.54011540  0.06725210    -0.24200
C1159       C  0.97079770  0.52899701  0.05708881     0.40400
C1160       C  0.97035389  0.50467464  0.05435459    -0.26600
O1161       O  0.02794646  0.48897307  0.07868733    -0.58500
H1162       H  0.02514982  0.53414958  0.08171732     0.16100
O1163       O  0.95162288  0.54156644  0.05004878    -0.60000
H1164       H  0.95491694  0.49644254  0.04695309     0.14500
H1165       H  0.01473236  0.41267726  0.01996578     0.46400
H1166       H  0.03955055  0.48971875  0.06535482     0.41700
H1167       H  0.95511407  0.54680568  0.03330888     0.45200
H1168       H  0.96218291  0.46893071  0.10266849     0.36700
C1169       C  0.92451545  0.30512923  0.08080506    -0.27600
C1170       C  0.90562939  0.31267368  0.06681417     0.02000
C1171       C  0.90586323  0.33529422  0.05696178     0.30100
C1172       C  0.92557503  0.34949883  0.05985622    -0.19400
C1173       C  0.94522300  0.34135159  0.07251943    -0.28800
C1174       C  0.94407571  0.31931164  0.08393870     0.44200
C1175       C  0.88629095  0.29629124  0.06200347     0.05300
O1176       O  0.88729100  0.34330789  0.04374388    -0.57300
H1177       H  0.92587093  0.36644720  0.05118647     0.18300
O1178       O  0.96213549  0.31117832  0.09782403    -0.64000
H1179       H  0.92421957  0.28796193  0.08902614     0.16700
C1180       C  0.89023659  0.27570582  0.04869083     0.29000
C1181       C  0.87237242  0.25924196  0.04607599    -0.24900
C1182       C  0.85031597  0.26320914  0.05632165    -0.24200
C1183       C  0.84615313  0.28431614  0.06879625     0.40400
C1184       C  0.86415174  0.30057592  0.07173220    -0.26600
O1185       O  0.91135957  0.27186492  0.03770315    -0.58500
H1186       H  0.87575316  0.24339824  0.03594251     0.16100
O1187       O  0.82489517  0.28873342  0.07922170    -0.60000
H1188       H  0.86096639  0.31634191  0.08206484     0.14500
H1189       H  0.95963712  0.31810426  0.11409140     0.46400
H1190       H  0.91995654  0.26130117  0.04878405     0.41700
H1191       H  0.81640079  0.29842815  0.06726484     0.45200
H1192       H  0.89113444  0.33959123  0.02664809     0.36700
C1193       C  0.05215320  0.30960849  0.09241646    -0.27600
C1194       C  0.07105555  0.31431072  0.07713727     0.02000
C1195       C  0.06997308  0.33335486  0.06112243     0.30100
C1196       C  0.04979545  0.34716832  0.06019542    -0.19400
C1197       C  0.03051832  0.34199780  0.07498440    -0.28800
C1198       C  0.03204798  0.32327641  0.09150932     0.44200
C1199       C  0.09079120  0.29783698  0.07676039     0.05300
O1200       O  0.08785187  0.33756947  0.04520571    -0.57300
H1201       H  0.04884371  0.36129295  0.04719860     0.18300
O1202       O  0.01385165  0.31794216  0.10665401    -0.64000
H1203       H  0.05284986  0.29495907  0.10480656     0.16700
C1204       C  0.11310615  0.30425841  0.08494545     0.29000
C1205       C  0.13103460  0.28765325  0.08547273    -0.24900
C1206       C  0.12675840  0.26450074  0.07837781    -0.24200
C1207       C  0.10446199  0.25830860  0.06977405     0.40400
C1208       C  0.08671295  0.27489995  0.06913020    -0.26600
O1209       O  0.11733670  0.32645545  0.09311779    -0.58500
H1210       H  0.14804768  0.29269347  0.09218332     0.16100
O1211       O  0.09970237  0.23602778  0.06212684    -0.60000
H1212       H  0.06957194  0.26981276  0.06279288     0.14500
H1213       H  0.01687013  0.32691260  0.12172774     0.46400
H1214       H  0.11408294  0.32594043  0.11076047     0.41700
H1215       H  0.10530827  0.23534073  0.04518045     0.45200
H1216       H  0.09786634  0.34927987  0.05335153     0.36700
C1217       C  0.73205529  0.27023049  0.65835309    -0.27600
C1218       C  0.74657500  0.25061963  0.65666087     0.02000
C1219       C  0.75328594  0.24246413  0.63359268     0.30100
C1220       C  0.74377342  0.25258595  0.61275183    -0.19400
C1221       C  0.72765687  0.27096819  0.61460395    -0.28800
C1222       C  0.72283290  0.28056696  0.63759562     0.44200
C1223       C  0.75125788  0.23684536  0.67881876     0.05300
O1224       O  0.76798160  0.22371419  0.63129535    -0.57300
H1225       H  0.74802040  0.24516470  0.59523872     0.18300
O1226       O  0.70774984  0.29896345  0.64020905    -0.64000
H1227       H  0.72648719  0.27663799  0.67588930     0.16700
C1228       C  0.75944432  0.24741939  0.70021976     0.29000
C1229       C  0.75996755  0.23468024  0.72187943    -0.24900
C1230       C  0.75199036  0.21151367  0.72265444    -0.24200
C1231       C  0.74454885  0.20075480  0.70100016     0.40400
C1232       C  0.74426528  0.21340013  0.67940264    -0.26600
O1233       O  0.76682702  0.27020213  0.70010402    -0.58500
H1234       H  0.76591107  0.24323351  0.73825427     0.16100
O1235       O  0.73598343  0.17841013  0.70093724    -0.60000
H1236       H  0.73730423  0.20517605  0.66327524     0.14500
H1237       H  0.71779896  0.31307386  0.64033801     0.46400
H1238       H  0.75491050  0.27900580  0.70940707     0.41700
H1239       H  0.74971514  0.16829579  0.69801589     0.45200
H1240       H  0.78390744  0.23048178  0.63109165     0.36700
C1241       C  0.74016665  0.19591117  0.90141439    -0.27600
C1242       C  0.75388936  0.21550502  0.90657601     0.02000
C1243       C  0.76201171  0.22957636  0.88750287     0.30100
C1244       C  0.75723437  0.22338540  0.86352338    -0.19400
C1245       C  0.74451478  0.20308472  0.85824222    -0.28800
C1246       C  0.73539373  0.18964536  0.87748930     0.44200
C1247       C  0.76175956  0.21939827  0.93166511     0.05300
O1248       O  0.77544872  0.24885407  0.89212324    -0.57300
H1249       H  0.76431819  0.23399717  0.84904561     0.18300
O1250       O  0.72295195  0.16961934  0.87321777    -0.64000
H1251       H  0.73408041  0.18477383  0.91596345     0.16700
C1252       C  0.74573222  0.22272966  0.95062133     0.29000
C1253       C  0.75358751  0.22361374  0.97460279    -0.24900
C1254       C  0.77734691  0.22075541  0.98002735    -0.24200
C1255       C  0.79343944  0.21809565  0.96083236     0.40400
C1256       C  0.78556898  0.21757355  0.93690557    -0.26600
O1257       O  0.72240960  0.22524581  0.94581287    -0.58500
H1258       H  0.74094483  0.22586891  0.98900657     0.16100
O1259       O  0.81684749  0.21558851  0.96518018    -0.60000
H1260       H  0.79803419  0.21478939  0.92241828     0.14500
H1261       H  0.70645138  0.17468091  0.87221075     0.46400
H1262       H  0.71532564  0.20991848  0.94967695     0.41700
H1263       H  0.81969232  0.19853393  0.96504290     0.45200
H1264       H  0.76429781  0.26204325  0.89303895     0.36700
C1265       C  0.69615723  0.76824484  0.65732249    -0.27600
C1266       C  0.72015032  0.76990756  0.66156566     0.02000
C1267       C  0.73580404  0.76779345  0.64203206     0.30100
C1268       C  0.72720663  0.76474997  0.61844675    -0.19400
C1269       C  0.70308254  0.76384408  0.61412891    -0.28800
C1270       C  0.68755942  0.76539188  0.63391757     0.44200
C1271       C  0.72800504  0.77583867  0.68627958     0.05300
O1272       O  0.75942356  0.76808263  0.64598232    -0.57300
H1273       H  0.73941788  0.76317267  0.60355102     0.18300
O1274       O  0.66387198  0.76461142  0.63063298    -0.64000
H1275       H  0.68392790  0.77002380  0.67219377     0.16700
C1276       C  0.73951824  0.79708884  0.69075859     0.29000
C1277       C  0.74300411  0.80459637  0.71455362    -0.24900
C1278       C  0.73496219  0.79126357  0.73416345    -0.24200
C1279       C  0.72399833  0.76968121  0.72972176     0.40400
C1280       C  0.72067617  0.76208595  0.70589395    -0.26600
O1281       O  0.74622608  0.81129239  0.67201828    -0.58500
H1282       H  0.75136855  0.82128730  0.71764427     0.16100
O1283       O  0.71534787  0.75648375  0.74840590    -0.60000
H1284       H  0.71141762  0.74589826  0.70266410     0.14500
H1285       H  0.65902862  0.78108608  0.62853383     0.46400
H1286       H  0.73255836  0.82142663  0.66876117     0.41700
H1287       H  0.69914470  0.76205552  0.75084326     0.45200
H1288       H  0.76518047  0.78260047  0.63824771     0.36700
C1289       C  0.75852179  0.79052818  0.91152853    -0.27600
C1290       C  0.77177744  0.77000242  0.91169238     0.02000
C1291       C  0.77740202  0.75898953  0.88970565     0.30100
C1292       C  0.76959120  0.76854206  0.86783065    -0.19400
C1293       C  0.75639709  0.78920615  0.86760948    -0.28800
C1294       C  0.75092856  0.80022547  0.88976914     0.44200
C1295       C  0.77939955  0.76046733  0.93515489     0.05300
O1296       O  0.78966860  0.73843323  0.88956176    -0.57300
H1297       H  0.77394672  0.75977935  0.85103019     0.18300
O1298       O  0.73788545  0.82027893  0.89048568    -0.64000
H1299       H  0.75418574  0.79918657  0.92840754     0.16700
C1300       C  0.80320234  0.75860972  0.94091773     0.29000
C1301       C  0.80986450  0.75273686  0.96445583    -0.24900
C1302       C  0.79302664  0.74901578  0.98256867    -0.24200
C1303       C  0.76921357  0.74943461  0.97632446     0.40400
C1304       C  0.76258867  0.75533897  0.95280214    -0.26600
O1305       O  0.82006340  0.76380856  0.92412552    -0.58500
H1306       H  0.82826888  0.75246398  0.96883710     0.16100
O1307       O  0.75221308  0.74563701  0.99335126    -0.60000
H1308       H  0.74421053  0.75670089  0.94849482     0.14500
H1309       H  0.74940903  0.83321283  0.89060370     0.46400
H1310       H  0.82142268  0.78108914  0.92433765     0.41700
H1311       H  0.74926716  0.72859352  0.99288908     0.45200
H1312       H  0.80513789  0.74232621  0.88258462     0.36700
C1313       C  0.27782751  0.75283619  0.74107100    -0.27600
C1314       C  0.27620477  0.76842745  0.72158706     0.02000
C1315       C  0.27046690  0.79190680  0.72602150     0.30100
C1316       C  0.26790604  0.79982765  0.74981322    -0.19400
C1317       C  0.27086778  0.78454349  0.76946580    -0.28800
C1318       C  0.27483327  0.76065055  0.76488344     0.44200
C1319       C  0.28246926  0.76063711  0.69692515     0.05300
O1320       O  0.26829202  0.80746065  0.70727395    -0.57300
H1321       H  0.26441492  0.81817555  0.75287157     0.18300
O1322       O  0.27683436  0.74495045  0.78349911    -0.64000
H1323       H  0.28193632  0.73464839  0.73780425     0.16700
C1324       C  0.30533921  0.75334665  0.69177963     0.29000
C1325       C  0.31178145  0.74818551  0.66795887    -0.24900
C1326       C  0.29561364  0.74992020  0.64892200    -0.24200
C1327       C  0.27243534  0.75639853  0.65428567     0.40400
C1328       C  0.26609343  0.76191304  0.67814274    -0.26600
O1329       O  0.32187752  0.75262753  0.70970561    -0.58500
H1330       H  0.32970269  0.74331728  0.66435588     0.16100
O1331       O  0.25604485  0.75816335  0.63632501    -0.60000
H1332       H  0.24841887  0.76748947  0.68196867     0.14500
H1333       H  0.26075291  0.73931761  0.78649135     0.46400
H1334       H  0.32357792  0.73584107  0.71383652     0.41700
H1335       H  0.24699094  0.74345193  0.63718796     0.45200
H1336       H  0.28439329  0.81235387  0.70333923     0.36700
C1337       C  0.20557576  0.75015574  0.96723490    -0.27600
C1338       C  0.22996780  0.75153992  0.96785747     0.02000
C1339       C  0.24160989  0.74924810  0.99014869     0.30100
C1340       C  0.22879285  0.74717062  0.01159889    -0.19400
C1341       C  0.20432127  0.74748867  0.01114798    -0.28800
C1342       C  0.19272768  0.74818131  0.98864266     0.44200
C1343       C  0.24256689  0.75884480  0.94578244     0.05300
O1344       O  0.26546959  0.75021250  0.99123855    -0.57300
H1345       H  0.23803813  0.74645902  0.02868509     0.18300
O1346       O  0.16884751  0.74745515  0.98736035    -0.64000
H1347       H  0.19635043  0.75204203  0.95023499     0.16700
C1348       C  0.23996126  0.74681864  0.92373631     0.29000
C1349       C  0.24872011  0.75655124  0.90230653    -0.24900
C1350       C  0.26023889  0.77820751  0.90260715    -0.24200
C1351       C  0.26418690  0.78937359  0.92500552     0.40400
C1352       C  0.25514562  0.77980701  0.94626895    -0.26600
O1353       O  0.22898484  0.72555327  0.92305959    -0.58500
H1354       H  0.24596241  0.74740924  0.88536598     0.16100
O1355       O  0.27563100  0.81034664  0.92624606    -0.60000
H1356       H  0.25709261  0.78936593  0.96309262     0.14500
H1357       H  0.16387622  0.76386292  0.98531077     0.46400
H1358       H  0.21324630  0.72868642  0.91635494     0.41700
H1359       H  0.29228221  0.80625773  0.92842491     0.45200
H1360       H  0.27072173  0.73381128  0.98947342     0.36700
C1361       C  0.18613139  0.87689465  0.82482891    -0.27600
C1362       C  0.19133165  0.89897935  0.83425590     0.02000
C1363       C  0.21217177  0.90237067  0.84719458     0.30100
C1364       C  0.22806006  0.88405090  0.84956989    -0.19400
C1365       C  0.22347036  0.86218640  0.83917606    -0.28800
C1366       C  0.20203562  0.85851383  0.82719934     0.44200
C1367       C  0.17604894  0.91898693  0.82886507     0.05300
O1368       O  0.21701109  0.92357642  0.85764989    -0.57300
H1369       H  0.24423105  0.88714225  0.85917437     0.18300
O1370       O  0.19703935  0.83752107  0.81646153    -0.64000
H1371       H  0.17015625  0.87417248  0.81475828     0.16700
C1372       C  0.18495261  0.93811041  0.81590138     0.29000
C1373       C  0.17141431  0.95799966  0.81278513    -0.24900
C1374       C  0.14862022  0.95909089  0.82192363    -0.24200
C1375       C  0.13915490  0.93943433  0.83379761     0.40400
C1376       C  0.15291384  0.91946027  0.83713784    -0.26600
O1377       O  0.20707574  0.93763139  0.80646202    -0.58500
H1378       H  0.17886834  0.97269637  0.80316351     0.16100
O1379       O  0.11690398  0.93981706  0.84291345    -0.60000
H1380       H  0.14581737  0.90466307  0.84687608     0.14500
H1381       H  0.18879748  0.82835689  0.82907190     0.46400
H1382       H  0.20547794  0.93001745  0.79040961     0.41700
H1383       H  0.11844837  0.94601113  0.85962644     0.45200
H1384       H  0.23022489  0.93010197  0.84830543     0.36700
C1385       C  0.58467748  0.16284146  0.80284969    -0.27600
C1386       C  0.59898582  0.14981582  0.78723573     0.02000
C1387       C  0.58979227  0.13019866  0.77528229     0.30100
C1388       C  0.56705618  0.12305139  0.78008235    -0.19400
C1389       C  0.55307330  0.13528489  0.79665185    -0.28800
C1390       C  0.56181440  0.15563411  0.80769979     0.44200
C1391       C  0.62410479  0.15506778  0.78568938     0.05300
O1392       O  0.60326141  0.11726177  0.75971801    -0.57300
H1393       H  0.56055202  0.10739991  0.77137099     0.18300
O1394       O  0.54880579  0.16764753  0.82442693    -0.64000
H1395       H  0.59168039  0.17781207  0.81237968     0.16700
C1396       C  0.63226697  0.17727692  0.77897299     0.29000
C1397       C  0.65622663  0.18185324  0.77892625    -0.24900
C1398       C  0.67225245  0.16434372  0.78524352    -0.24200
C1399       C  0.66396771  0.14206125  0.79178954     0.40400
C1400       C  0.64010004  0.13761178  0.79196125    -0.26600
O1401       O  0.61698969  0.19454252  0.77238852    -0.58500
H1402       H  0.66226786  0.19907825  0.77383377     0.16100
O1403       O  0.67896593  0.12455871  0.79844526    -0.60000
H1404       H  0.63400787  0.12052795  0.79751218     0.14500
H1405       H  0.55287044  0.16064140  0.84028365     0.46400
H1406       H  0.61454511  0.19236788  0.75475017     0.41700
H1407       H  0.68061072  0.12606812  0.81623358     0.45200
H1408       H  0.60270483  0.12573121  0.74407245     0.36700
C1409       C  0.58815217  0.86442603  0.84310498    -0.27600
C1410       C  0.59455098  0.84934060  0.82419034     0.02000
C1411       C  0.57741361  0.84181743  0.80762409     0.30100
C1412       C  0.55457280  0.85031214  0.80948281    -0.19400
C1413       C  0.54878465  0.86673305  0.82732969    -0.28800
C1414       C  0.56556158  0.87333772  0.84456432     0.44200
C1415       C  0.61949367  0.84343953  0.82075565     0.05300
O1416       O  0.58310481  0.82731095  0.78875150    -0.57300
H1417       H  0.54180473  0.84528323  0.79600113     0.18300
O1418       O  0.56027570  0.88922591  0.86233714    -0.64000
H1419       H  0.60100813  0.87006410  0.85623175     0.16700
C1420       C  0.63632109  0.86131156  0.81947965     0.29000
C1421       C  0.65980494  0.85580076  0.81626642    -0.24900
C1422       C  0.66705679  0.83255008  0.81383192    -0.24200
C1423       C  0.65022312  0.81457886  0.81506721     0.40400
C1424       C  0.62663890  0.82012263  0.81846580    -0.26600
O1425       O  0.62993855  0.88434045  0.82093235    -0.58500
H1426       H  0.67235217  0.86990152  0.81532682     0.16100
O1427       O  0.65651036  0.79159249  0.81275328    -0.60000
H1428       H  0.61392500  0.80617689  0.81948208     0.14500
H1429       H  0.55341790  0.87989919  0.87570373     0.46400
H1430       H  0.62606733  0.88894512  0.80411322     0.41700
H1431       H  0.65953045  0.78616009  0.82946896     0.45200
H1432       H  0.58770666  0.83782460  0.77532303     0.36700
C1433       C  0.37602635  0.85841866  0.83302132    -0.27600
C1434       C  0.39276153  0.84116917  0.82810833     0.02000
C1435       C  0.38563890  0.81763705  0.82714792     0.30100
C1436       C  0.36204028  0.81189437  0.83035153    -0.19400
C1437       C  0.34521280  0.82936934  0.83421398    -0.28800
C1438       C  0.35248795  0.85281749  0.83554871     0.44200
C1439       C  0.41735903  0.84846140  0.82409483     0.05300
O1440       O  0.40148290  0.80018536  0.82285761    -0.57300
H1441       H  0.35686092  0.79374218  0.82932446     0.18300
O1442       O  0.33682836  0.87047696  0.83963665    -0.64000
H1443       H  0.38119717  0.87651239  0.83481307     0.16700
C1444       C  0.42242944  0.86755967  0.80887087     0.29000
C1445       C  0.44491732  0.87686626  0.80820796    -0.24900
C1446       C  0.46288029  0.86718137  0.82213775    -0.24200
C1447       C  0.45833955  0.84698368  0.83594276     0.40400
C1448       C  0.43564681  0.83787636  0.83700180    -0.26600
O1449       O  0.40548235  0.87706993  0.79435697    -0.58500
H1450       H  0.44823531  0.89197558  0.79692125     0.16100
O1451       O  0.47561647  0.83664929  0.84933149    -0.60000
H1452       H  0.43216836  0.82320560  0.84882050     0.14500
H1453       H  0.33329721  0.87696503  0.82337359     0.46400
H1454       H  0.40273346  0.89304971  0.80073467     0.41700
H1455       H  0.47590348  0.84529867  0.86488458     0.45200
H1456       H  0.39966832  0.79619292  0.80547484     0.36700
C1457       C  0.52489955  0.97678572  0.80824370    -0.27600
C1458       C  0.50758288  0.98986287  0.82008846     0.02000
C1459       C  0.48961219  0.97796709  0.83249200     0.30100
C1460       C  0.48914876  0.95357311  0.83277088    -0.19400
C1461       C  0.50681103  0.94060033  0.82147213    -0.28800
C1462       C  0.52476058  0.95241457  0.80907920     0.44200
C1463       C  0.50824660  0.01578099  0.81907363     0.05300
O1464       O  0.47258137  0.98995169  0.84474830    -0.57300
H1465       H  0.47525950  0.94476902  0.84244747     0.18300
O1466       O  0.54206670  0.94032886  0.79735785    -0.64000
H1467       H  0.53849820  0.98546466  0.79803234     0.16700
C1468       C  0.52914400  0.02821795  0.82300195     0.29000
C1469       C  0.52943309  0.05252846  0.82103991    -0.24900
C1470       C  0.50891680  0.06498674  0.81608310    -0.24200
C1471       C  0.48789752  0.05262678  0.81282661     0.40400
C1472       C  0.48779715  0.02828475  0.81388391    -0.26600
O1473       O  0.54935126  0.01685093  0.82906838    -0.58500
H1474       H  0.54572986  0.06168496  0.82387924     0.16100
O1475       O  0.46735580  0.06405129  0.80824261    -0.60000
H1476       H  0.47163174  0.01915625  0.81031712     0.14500
H1477       H  0.53586170  0.93717877  0.78094576     0.46400
H1478       H  0.54909368  0.01577504  0.84699232     0.41700
H1479       H  0.46703205  0.06635390  0.79047745     0.45200
H1480       H  0.47978163  0.99450847  0.86037924     0.36700
C1481       C  0.27555859  0.25739574  0.74863162    -0.27600
C1482       C  0.27500350  0.24389527  0.72743540     0.02000
C1483       C  0.27534876  0.21941650  0.72919093     0.30100
C1484       C  0.27611700  0.20877338  0.75193426    -0.19400
C1485       C  0.27657490  0.22219707  0.77322731    -0.28800
C1486       C  0.27637859  0.24675055  0.77142843     0.44200
C1487       C  0.27619203  0.25539618  0.70353060     0.05300
O1488       O  0.27642579  0.20582128  0.70873769    -0.57300
H1489       H  0.27665937  0.18989546  0.75282767     0.18300
O1490       O  0.27717737  0.26053195  0.79172946    -0.64000
H1491       H  0.27564968  0.27627000  0.74745759     0.16700
C1492       C  0.25940722  0.25107977  0.68547924     0.29000
C1493       C  0.26290215  0.25949571  0.66194391    -0.24900
C1494       C  0.28288623  0.27256775  0.65623745    -0.24200
C1495       C  0.29863166  0.27845484  0.67492234     0.40400
C1496       C  0.29528771  0.26971755  0.69826062    -0.26600
O1497       O  0.23990229  0.23810782  0.69050175    -0.58500
H1498       H  0.25038084  0.25509998  0.64799224     0.16100
O1499       O  0.31796164  0.29185519  0.67039227    -0.60000
H1500       H  0.30817940  0.27340435  0.71208191     0.14500
H1501       H  0.29395729  0.26383047  0.79434520     0.46400
H1502       H  0.22892269  0.24910125  0.69832367     0.41700
H1503       H  0.31360265  0.30783992  0.67550715     0.45200
H1504       H  0.26106170  0.19796680  0.70767313     0.36700
C1505       C  0.25045237  0.23861900  0.93623457    -0.27600
C1506       C  0.25100349  0.22158233  0.95443894     0.02000
C1507       C  0.26074284  0.19957286  0.94947640     0.30100
C1508       C  0.26930384  0.19466939  0.92636145    -0.19400
C1509       C  0.26797622  0.21135438  0.90780701    -0.28800
C1510       C  0.25900343  0.23368859  0.91302711     0.44200
C1511       C  0.23922710  0.22584870  0.97775335     0.05300
O1512       O  0.26006475  0.18211526  0.96647541    -0.57300
H1513       H  0.27584420  0.17729016  0.92264660     0.18300
O1514       O  0.25782692  0.25052973  0.89543675    -0.64000
H1515       H  0.24287046  0.25557874  0.93989641     0.16700
C1516       C  0.25125635  0.22368144  0.99982697     0.29000
C1517       C  0.23887460  0.22354705  0.02163917    -0.24900
C1518       C  0.21450391  0.22569791  0.02168784    -0.24200
C1519       C  0.20276664  0.22995347  0.99967892     0.40400
C1520       C  0.21514679  0.22985761  0.97790465    -0.26600
O1521       O  0.27497456  0.22071352  0.00016932    -0.58500
H1522       H  0.24825186  0.22074023  0.03841095     0.16100
O1523       O  0.17909621  0.23330992  0.99910153    -0.60000
H1524       H  0.20575815  0.23183519  0.96100293     0.14500
H1525       H  0.27135681  0.26089455  0.89849340     0.46400
H1526       H  0.28151534  0.23661431  0.99902833     0.41700
H1527       H  0.17691277  0.25037537  0.00088054     0.45200
H1528       H  0.27623217  0.18073090  0.97257656     0.36700
C1529       C  0.19019092  0.12507641  0.82374198    -0.27600
C1530       C  0.19607261  0.10196558  0.82937885     0.02000
C1531       C  0.21828315  0.09704187  0.83893491     0.30100
C1532       C  0.23459633  0.11489790  0.84165490    -0.19400
C1533       C  0.22910347  0.13794540  0.83521547    -0.28800
C1534       C  0.20650715  0.14304119  0.82659574     0.44200
C1535       C  0.17954935  0.08281253  0.82421732     0.05300
O1536       O  0.22435756  0.07471859  0.84532535    -0.57300
H1537       H  0.25173013  0.11058756  0.84857305     0.18300
O1538       O  0.20024380  0.16539271  0.82058374    -0.64000
H1539       H  0.17315800  0.12910383  0.81639267     0.16700
C1540       C  0.15698301  0.08246815  0.83427439     0.29000
C1541       C  0.14253025  0.06308220  0.83056141    -0.24900
C1542       C  0.15046555  0.04389313  0.81708273    -0.24200
C1543       C  0.17265820  0.04476289  0.80614815     0.40400
C1544       C  0.18692358  0.06415637  0.80965746    -0.26600
O1545       O  0.14961724  0.10015195  0.84918059    -0.58500
H1546       H  0.12560893  0.06253460  0.83928378     0.16100
O1547       O  0.18085103  0.02648356  0.79251318    -0.60000
H1548       H  0.20407741  0.06441996  0.80141326     0.14500
H1549       H  0.20337784  0.16672596  0.80298455     0.46400
H1550       H  0.13856939  0.10948236  0.83926253     0.41700
H1551       H  0.17341566  0.02832552  0.77638433     0.45200
H1552       H  0.21697559  0.07208190  0.86130137     0.36700
C1553       C  0.43682963  0.16257280  0.80552716    -0.27600
C1554       C  0.42421302  0.15711664  0.82665940     0.02000
C1555       C  0.43533041  0.14443145  0.84523687     0.30100
C1556       C  0.45787234  0.13598212  0.84179790    -0.19400
C1557       C  0.47002178  0.14054882  0.82031961    -0.28800
C1558       C  0.45973863  0.15460620  0.80241746     0.44200
C1559       C  0.39904252  0.16289829  0.82850281     0.05300
O1560       O  0.42395779  0.13935613  0.86646252    -0.57300
H1561       H  0.46566156  0.12514785  0.85569654     0.18300
O1562       O  0.47102927  0.15876120  0.78093874    -0.64000
H1563       H  0.42854737  0.17193241  0.79084297     0.16700
C1564       C  0.39049398  0.18536693  0.82315453     0.29000
C1565       C  0.36667401  0.19017498  0.82568395    -0.24900
C1566       C  0.35106624  0.17275268  0.83318818    -0.24200
C1567       C  0.35957434  0.15026125  0.83831278     0.40400
C1568       C  0.38327151  0.14543615  0.83565896    -0.26600
O1569       O  0.40536240  0.20293648  0.81635786    -0.58500
H1570       H  0.36039120  0.20756396  0.82160568     0.08900
O1571       O  0.34497140  0.13289150  0.84621279    -0.60000
H1572       H  0.38935008  0.12788040  0.83925683     0.14500
H1573       H  0.47978807  0.17338615  0.78356114     0.46400
H1574       H  0.40214673  0.20567295  0.79891432     0.41700
H1575       H  0.34415985  0.13483751  0.86398357     0.45200
H1576       H  0.42859503  0.15187249  0.87789002     0.36700
C1577       C  0.98874881  0.98041421  0.79777589    -0.27600
C1578       C  0.00033292  0.00051221  0.80597926     0.02000
C1579       C  0.98707162  0.01961841  0.81424082     0.30100
C1580       C  0.96277311  0.01821822  0.81474345    -0.19400
C1581       C  0.95119528  0.99768065  0.80774565    -0.28800
C1582       C  0.96445030  0.97876337  0.79887151     0.44200
C1583       C  0.02615660  0.00079262  0.80741052     0.05300
O1584       O  0.99766668  0.03941120  0.82285011    -0.57300
H1585       H  0.95304238  0.03298467  0.82168468     0.18300
O1586       O  0.95397188  0.95842562  0.79159028    -0.64000
H1587       H  0.99862731  0.96570449  0.79092584     0.16700
C1588       C  0.03825448  0.98228033  0.81852563     0.29000
C1589       C  0.06246316  0.98304924  0.82052196    -0.24900
C1590       C  0.07515927  0.00236136  0.81209680    -0.24200
C1591       C  0.06308203  0.02097549  0.80101815     0.40400
C1592       C  0.03881496  0.01998273  0.79859261    -0.26600
O1593       O  0.02656362  0.96352337  0.82805229    -0.58500
H1594       H  0.07126085  0.96859240  0.82924133     0.16100
O1595       O  0.07471407  0.04016687  0.79239197    -0.60000
H1596       H  0.02985869  0.03427704  0.78976603     0.14500
H1597       H  0.95018820  0.96079412  0.77426024     0.46400
H1598       H  0.02124404  0.96868839  0.84429457     0.41700
H1599       H  0.07869597  0.03632589  0.77538979     0.45200
H1600       H  0.00117306  0.03607093  0.84009602     0.36700
C1601       C  0.83213407  0.11614644  0.81059003    -0.27600
C1602       C  0.82718907  0.09305454  0.80402413     0.02000
C1603       C  0.80546916  0.08767584  0.79358220     0.30100
C1604       C  0.78902666  0.10527791  0.78988537    -0.19400
C1605       C  0.79390837  0.12846620  0.79635365    -0.28800
C1606       C  0.81568020  0.13381562  0.80688873     0.44200
C1607       C  0.84432353  0.07441997  0.80890744     0.05300
O1608       O  0.80012360  0.06520690  0.78703696    -0.57300
H1609       H  0.77237890  0.10070549  0.78193970     0.18300
O1610       O  0.82077056  0.15602816  0.81447093    -0.64000
H1611       H  0.84862125  0.12039925  0.81906918     0.16700
C1612       C  0.86670141  0.07474179  0.79844125     0.29000
C1613       C  0.88176236  0.05576485  0.80177787    -0.24900
C1614       C  0.87476153  0.03636859  0.81556377    -0.24200
C1615       C  0.85277530  0.03677331  0.82708683     0.40400
C1616       C  0.83782741  0.05569989  0.82371277    -0.26600
O1617       O  0.87339909  0.09279871  0.78369904    -0.58500
H1618       H  0.89851513  0.05581959  0.79270016     0.16100
O1619       O  0.84580047  0.01888283  0.84193227    -0.60000
H1620       H  0.82087043  0.05558667  0.83239156     0.14500
H1621       H  0.82919623  0.16331204  0.80074676     0.46400
H1622       H  0.88317931  0.10300632  0.79402836     0.41700
H1623       H  0.83435563  0.00980101  0.83233552     0.45200
H1624       H  0.80464633  0.06396490  0.76972090     0.36700
C1625       C  0.80729098  0.90551486  0.80013942    -0.27600
C1626       C  0.82884954  0.89760876  0.80884498     0.02000
C1627       C  0.83203351  0.87380489  0.81369536     0.30100
C1628       C  0.81349657  0.85825577  0.81051198    -0.19400
C1629       C  0.79164853  0.86614604  0.80235721    -0.28800
C1630       C  0.78879684  0.88995705  0.79665908     0.44200
C1631       C  0.84750802  0.91466154  0.81360869     0.05300
O1632       O  0.85280742  0.86581660  0.82274822    -0.57300
H1633       H  0.81608049  0.84006187  0.81509986     0.18300
O1634       O  0.76798923  0.89829597  0.78804022    -0.64000
H1635       H  0.80478819  0.92386503  0.79617958     0.16700
C1636       C  0.86728126  0.91608093  0.79857182     0.29000
C1637       C  0.88308139  0.93452016  0.80148212    -0.24900
C1638       C  0.87906578  0.95173853  0.81907649    -0.24200
C1639       C  0.86026884  0.94917631  0.83531402     0.40400
C1640       C  0.84454549  0.93082664  0.83238228    -0.26600
O1641       O  0.87054814  0.90033321  0.78016355    -0.58500
H1642       H  0.89743828  0.93630137  0.78884485     0.16100
O1643       O  0.85648781  0.96518599  0.85338126    -0.60000
H1644       H  0.82954217  0.92963906  0.84426778     0.14500
H1645       H  0.76914287  0.89696865  0.77020993     0.46400
H1646       H  0.86324179  0.90756850  0.76572627     0.41700
H1647       H  0.86678081  0.96024549  0.86688129     0.45200
H1648       H  0.86131458  0.85952141  0.80861389     0.36700
loop_ 
_geom_bond_atom_site_label_1 
_geom_bond_atom_site_label_2 
_geom_bond_distance 
_geom_bond_site_symmetry_2 
_ccdc_geom_bond_type 
C1            N2   1.362   1_565  A
C1            N6   1.362       .  A
C1         C1581   1.481       .  S
N2            C3   1.357       .  A
C3            N4   1.352   1_545  A
C3         C1614   1.479       .  S
N4            C5   1.352       .  A
C5            N6   1.357       .  A
C5         C1638   1.470       .  S
In7           O9   2.246       .  S
In7          O10   2.234       .  S
In7          O18   2.223       .  S
In7          O12   2.241       .  S
In7          O14   2.249       .  S
In7          O15   2.227       .  S
In7          O16   2.228       .  S
In7          O19   2.237       .  S
C8         C1509   1.473       .  S
C8           O14   1.261       .  A
C8           O16   1.258       .  A
O9           C17   1.260       .  A
O10          C17   1.260       .  A
C11        C1485   1.477       .  S
C11          O18   1.261       .  A
C11          O12   1.263       .  A
C13        C1566   1.472       .  S
C13          O15   1.261       .  A
C13          O19   1.261       .  A
C17        C1533   1.478       .  S
C20          N21   1.356       .  A
C20          N25   1.359       .  A
C20        C1413   1.467       .  S
N21          C22   1.354       .  A
C22          N23   1.356       .  A
C22        C1461   1.476       .  S
N23          C24   1.360       .  A
C24          N25   1.360       .  A
C24        C1446   1.478       .  S
C26          N27   1.356       .  A
C26          N31   1.360       .  A
C26        C1557   1.466       .  S
N27          C28   1.352       .  A
C28          N29   1.353       .  A
C28        C1470   1.477       .  S
N29          C30   1.357       .  A
C30          N31   1.361       .  A
C30        C1389   1.471       .  S
In32         O34   2.252       .  S
In32         O35   2.235       .  S
In32         O43   2.231       .  S
In32         O37   2.238       .  S
In32         O39   2.246       .  S
In32         O40   2.238       .  S
In32         O41   2.236       .  S
In32         O44   2.238       .  S
C33        C1350   1.478       .  S
C33          O39   1.259       .  A
C33          O41   1.259       .  A
O34          C42   1.261       .  A
O35          C42   1.260       .  A
C36        C1317   1.477       .  S
C36          O43   1.260       .  A
C36          O37   1.262       .  A
C38        C1365   1.476       .  S
C38          O40   1.261       .  A
C38          O44   1.260       .  A
C42        C1437   1.481       .  S
In45         O47   2.228       .  S
In45         O48   2.247       .  S
In45         O56   2.230       .  S
In45         O50   2.239       .  S
In45         O52   2.243       .  S
In45         O53   2.238       .  S
In45         O54   2.217       .  S
In45         O57   2.243       .  S
C46        C1293   1.475       .  S
C46          O52   1.263       .  A
C46          O54   1.259       .  A
O47          C55   1.261       .  A
O48          C55   1.264       .  A
C49        C1278   1.472       .  S
C49          O56   1.260       .  A
C49          O50   1.261       .  A
C51        C1422   1.480       .  S
C51          O53   1.263       .  A
C51          O57   1.260       .  A
C55        C1629   1.478       .  S
In58         O60   2.240       .  S
In58         O61   2.214       .  S
In58         O69   2.229       .  S
In58         O63   2.249       .  S
In58         O65   2.244       .  S
In58         O66   2.236       .  S
In58         O67   2.218       .  S
In58         O70   2.242       .  S
C59        C1245   1.475       .  S
C59          O65   1.264       .  A
C59          O67   1.258       .  A
O60          C68   1.263       .  A
O61          C68   1.261       .  A
C62        C1230   1.479       .  S
C62          O69   1.259       .  A
C62          O63   1.262       .  A
C64        C1605   1.477       .  S
C64          O66   1.260       .  A
C64          O70   1.259       .  A
C68        C1398   1.472       .  S
C71          N72   1.361       .  A
C71          N76   1.361   1_545  A
C71        C1590   1.480       .  S
N72          C73   1.358       .  A
C73          N74   1.353       .  A
C73        C1542   1.471       .  S
N74          C75   1.353   1_545  A
C75          N76   1.355       .  A
C75        C1374   1.474       .  S
C77          N78   1.363   1_655  A
C77          N82   1.362       .  A
C77        C1149   1.482       .  S
N78          C79   1.360       .  A
C79          N80   1.355   1_455  A
C79        C1197   1.479       .  S
N80          C81   1.355       .  A
C81          N82   1.359       .  A
C81        C1173   1.484       .  S
C83          N84   1.361       .  A
C83          N88   1.359       .  A
C83        C1110   1.475       .  S
N84          C85   1.359   1_565  A
C85          N86   1.357       .  A
C85        C1077   1.476       .  S
N86          C87   1.353   1_545  A
C87          N88   1.355       .  A
C87        C1134   1.476       .  S
C89          N90   1.359       .  A
C89          N94   1.359   1_545  A
C89        C1038   1.476       .  S
N90          C91   1.356   1_545  A
C91          N92   1.354       .  A
C91        C1125   1.486       .  S
N92          C93   1.357       .  A
C93          N94   1.359       .  A
C93        C1062   1.473       .  S
In95         O97   2.247       .  S
In95         O98   2.233       .  S
In95        O106   2.227       .  S
In95        O100   2.247       .  S
In95        O102   2.251       .  S
In95        O103   2.256       .  S
In95        O104   2.236       .  S
In95        O107   2.234       .  S
C96        C1005   1.483       .  S
C96         O102   1.263       .  A
C96         O104   1.261       .  A
O97         C105   1.261       .  A
O98         C105   1.263       .  A
C99        C1254   1.479   1_554  S
C99         O106   1.259       .  A
C99         O100   1.264       .  A
C101       C1182   1.478       .  S
C101        O103   1.263       .  A
C101        O107   1.259       .  A
C105       C1086   1.480       .  S
In108       O110   2.252       .  S
In108       O111   2.212       .  S
In108       O119   2.222       .  S
In108       O113   2.250       .  S
In108       O115   2.239       .  S
In108       O116   2.216       .  S
In108       O117   2.230       .  S
In108       O120   2.273       .  S
C109        C990   1.476       .  S
C109        O115   1.261       .  A
C109        O117   1.259       .  A
O110        C118   1.263       .  A
O111        C118   1.259       .  A
C112       C1518   1.473       .  S
C112        O119   1.257       .  A
C112        O113   1.261       .  A
C114       C1029   1.475       .  S
C114        O116   1.255       .  A
C114        O120   1.261       .  A
C118       C1206   1.473       .  S
In121       O123   2.254       .  S
In121       O124   2.223       .  S
In121       O132   2.224       .  S
In121       O126   2.245       .  S
In121       O128   2.237       .  S
In121       O129   2.246       .  S
In121       O130   2.226       .  S
In121       O133   2.237       .  S
C122        C942   1.477       .  S
C122        O128   1.263       .  A
C122        O130   1.260       .  A
O123        C131   1.261       .  A
O124        C131   1.261       .  A
C125       C1341   1.475       .  S
C125        O132   1.259       .  A
C125        O126   1.262       .  A
C127        C957   1.476       .  S
C127        O129   1.262       .  A
C127        O133   1.260       .  A
C131       C1053   1.480       .  S
In134       O136   2.249       .  S
In134       O137   2.228       .  S
In134       O145   2.220       .  S
In134       O139   2.230       .  S
In134       O141   2.244       .  S
In134       O142   2.241       .  S
In134       O143   2.216       .  S
In134       O146   2.242       .  S
C135        C885   1.474       .  S
C135        O141   1.262       .  A
C135        O143   1.260       .  A
O136        C144   1.262       .  A
O137        C144   1.261       .  A
C138       C1302   1.473   1_554  S
C138        O145   1.260       .  A
C138        O139   1.263       .  A
C140       C1101   1.480       .  S
C140        O142   1.262       .  A
C140        O146   1.260       .  A
C144        C909   1.481       .  S
C147        N148   1.367   1_655  A
C147        N152   1.363       .  A
C147       C1158   1.493       .  S
N148        C149   1.362       .  A
C149        N150   1.354   1_455  A
C149        C966   1.485       .  S
N150        C151   1.350       .  A
C151        N152   1.357       .  A
C151        C918   1.470       .  S
C153        N154   1.363       .  A
C153        N158   1.363       .  A
C153        C813   1.487       .  S
N154        C155   1.358       .  A
C155        N156   1.351       .  A
C155        C846   1.480       .  S
N156        C157   1.352       .  A
C157        N158   1.359       .  A
C157        C861   1.486       .  S
In159       O161   2.229       .  S
In159       O162   2.241       .  S
In159       O170   2.249       .  S
In159       O164   2.234       .  S
In159       O166   2.260       .  S
In159       O167   2.237       .  S
In159       O168   2.215       .  S
In159       O171   2.235       .  S
C160       C1494   1.478       .  S
C160        O166   1.264       .  A
C160        O168   1.258       .  A
O161        C169   1.260       .  A
O162        C169   1.261       .  A
C163        C774   1.475       .  S
C163        O170   1.257       .  A
C163        O164   1.257       .  A
C165        C798   1.475       .  S
C165        O167   1.261       .  A
C165        O171   1.261       .  A
C169        C837   1.475       .  S
C172        N173   1.359       .  A
C172        N177   1.365       .  A
C172        C789   1.481       .  S
N173        C174   1.351       .  A
C174        N175   1.347       .  A
C174        C741   1.467       .  S
N175        C176   1.354       .  A
C176        N177   1.362       .  A
C176        C726   1.474       .  S
C178        N179   1.356       .  A
C178        N183   1.363       .  A
C178        C669   1.481       .  S
N179        C180   1.351       .  A
C180        N181   1.353       .  A
C180        C750   1.477       .  S
N181        C182   1.358       .  A
C182        N183   1.365       .  A
C182        C693   1.472       .  S
In184       O186   2.245       .  S
In184       O187   2.234       .  S
In184       O195   2.233       .  S
In184       O189   2.228       .  S
In184       O191   2.251       .  S
In184       O192   2.245       .  S
In184       O193   2.225       .  S
In184       O196   2.235       .  S
C185       C1221   1.477       .  S
C185        O191   1.260       .  A
C185        O193   1.258       .  A
O186        C194   1.261       .  A
O187        C194   1.261       .  A
C188        C645   1.475       .  S
C188        O195   1.261       .  A
C188        O189   1.263       .  A
C190        C870   1.473       .  S
C190        O192   1.260       .  A
C190        O196   1.259       .  A
C194        C702   1.479       .  S
In197       O199   2.259       .  S
In197       O200   2.227       .  S
In197       O208   2.219       .  S
In197       O202   2.247       .  S
In197       O204   2.258       .  S
In197       O205   2.245       .  S
In197       O206   2.212       .  S
In197       O209   2.251       .  S
C198       C1269   1.477       .  S
C198        O204   1.264       .  A
C198        O206   1.258       .  A
O199        C207   1.262       .  A
O200        C207   1.262       .  A
C201        C597   1.478       .  S
C201        O208   1.260       .  A
C201        O202   1.264       .  A
C203        C678   1.484       .  S
C203        O205   1.262       .  A
C203        O209   1.261       .  A
C207        C621   1.481       .  S
In210       O212   2.238       .  S
In210       O213   2.246       .  S
In210       O221   2.231       .  S
In210       O215   2.254       .  S
In210       O217   2.258       .  S
In210       O218   2.236       .  S
In210       O219   2.227       .  S
In210       O222   2.245       .  S
C211       C1326   1.481       .  S
C211        O217   1.263       .  A
C211        O219   1.260       .  A
O212        C220   1.260       .  A
O213        C220   1.260       .  A
C214        C549   1.482       .  S
C214        O221   1.260       .  A
C214        O215   1.264       .  A
C216        C582   1.479       .  S
C216        O218   1.262       .  A
C216        O222   1.261       .  A
C220        C717   1.478       .  S
C223        N224   1.369       .  A
C223        N228   1.364       .  A
C223        C822   1.491       .  S
N224        C225   1.362       .  A
C225        N226   1.353       .  A
C225        C573   1.486       .  S
N226        C227   1.350       .  A
C227        N228   1.356       .  A
C227        C630   1.477       .  S
C229        N230   1.361       .  A
C229        N234   1.360       .  A
C229        C486   1.480       .  S
N230        C231   1.357       .  A
C231        N232   1.355       .  A
C231        C501   1.486       .  S
N232        C233   1.355       .  A
C233        N234   1.357       .  A
C233        C525   1.471       .  S
C235        N236   1.358       .  A
C235        N240   1.361   1_455  A
C235        C438   1.467       .  S
N236        C237   1.353   1_455  A
C237        N238   1.351       .  A
C237        C462   1.475       .  S
N238        C239   1.354       .  A
C239        N240   1.360       .  A
C239        C405   1.472       .  S
C241        N242   1.358       .  A
C241        N246   1.365       .  A
C241        C357   1.474       .  S
N242        C243   1.354       .  A
C243        N244   1.351   1_655  A
C243        C453   1.474       .  S
N244        C245   1.356       .  A
C245        N246   1.365   1_455  A
C245        C381   1.484       .  S
In247       O249   2.245       .  S
In247       O250   2.222       .  S
In247       O258   2.213       .  S
In247       O252   2.252       .  S
In247       O254   2.243       .  S
In247       O255   2.222       .  S
In247       O256   2.216       .  S
In247       O259   2.236       .  S
C248        C765   1.470       .  S
C248        O254   1.263       .  A
C248        O256   1.258       .  A
O249        C257   1.261       .  A
O250        C257   1.260       .  A
C251        C981   1.476       .  S
C251        O258   1.258       .  A
C251        O252   1.264       .  A
C253        C429   1.475       .  S
C253        O255   1.261       .  A
C253        O259   1.263       .  A
C257        C534   1.475       .  S
In260       O262   2.240       .  S
In260       O263   2.231       .  S
In260       O271   2.231       .  S
In260       O265   2.257       .  S
In260       O267   2.249       .  S
In260       O268   2.242       .  S
In260       O269   2.227       .  S
In260       O272   2.258       .  S
C261        C654   1.475       .  S
C261        O267   1.263       .  A
C261        O269   1.257       .  A
O262        C270   1.262       .  A
O263        C270   1.261       .  A
C264       C1014   1.482       .  S
C264        O271   1.260       .  A
C264        O265   1.262       .  A
C266        C333   1.483       .  S
C266        O268   1.259       .  A
C266        O272   1.260       .  A
C270        C414   1.477       .  S
In273       O275   2.253       .  S
In273       O276   2.241       .  S
In273       O284   2.232       .  S
In273       O278   2.238       .  S
In273       O280   2.237       .  S
In273       O281   2.238       .  S
In273       O282   2.238       .  S
In273       O285   2.247       .  S
C274        C606   1.478       .  S
C274        O280   1.261       .  A
C274        O282   1.261       .  A
O275        C283   1.260       .  A
O276        C283   1.260       .  A
C277        C894   1.475       .  S
C277        O284   1.260       .  A
C277        O278   1.260       .  A
C279        C366   1.481       .  S
C279        O281   1.261       .  A
C279        O285   1.260       .  A
C283        C318   1.481       .  S
In286       O288   2.259       .  S
In286       O289   2.237       .  S
In286       O297   2.220       .  S
In286       O291   2.252       .  S
In286       O293   2.259       .  S
In286       O294   2.246       .  S
In286       O295   2.231       .  S
In286       O298   2.254       .  S
C287        C558   1.480       .  S
C287        O293   1.261       .  A
C287        O295   1.258       .  A
O288        C296   1.262       .  A
O289        C296   1.261       .  A
C290        C933   1.480       .  S
C290        O297   1.261       .  A
C290        O291   1.264       .  A
C292        C510   1.481       .  S
C292        O294   1.260       .  A
C292        O298   1.260       .  A
C296        C390   1.481       .  S
C299        N300   1.361       .  A
C299        N304   1.362       .  A
C299        C477   1.477       .  S
N300        C301   1.356       .  A
C301        N302   1.354       .  A
C301        C309   1.472       .  S
N302        C303   1.355       .  A
C303        N304   1.358       .  A
C303        C342   1.485       .  S
C305        C306   1.406       .  A
C305        C310   1.401       .  A
C305        H315   1.083       .  S
C306        C311   1.485       .  S
C306        C307   1.409       .  A
C307        C308   1.398       .  A
C307        O312   1.374       .  S
C308        C309   1.402       .  A
C308        H313   1.084       .  S
C309        C310   1.407       .  A
C310        O314   1.371       .  S
C311        C316   1.412       .  A
C311        C320   1.403       .  A
O312        H328   0.995       .  S
O314        H325   0.994       .  S
C316        C317   1.396       .  A
C316        O321   1.372       .  S
C317        C318   1.404       .  A
C317        H322   1.083       .  S
C318        C319   1.412       .  A
C319        C320   1.402       .  A
C319        O323   1.371       .  S
C320        H324   1.083       .  S
O321        H326   0.992       .  S
O323        H327   0.991       .  S
C329        C330   1.403       .  A
C329        C334   1.397       .  A
C329        H339   1.084       .  S
C330        C335   1.484       .  S
C330        C331   1.408       .  A
C331        C332   1.403       .  A
C331        O336   1.372       .  S
C332        C333   1.407       .  A
C332        H337   1.083       .  S
C333        C334   1.411       .  A
C334        O338   1.371       .  S
C335        C340   1.407       .  A
C335        C344   1.405       .  A
O336        H352   0.992       .  S
O338        H349   0.993       .  S
C340        C341   1.395       .  A
C340        O345   1.373       .  S
C341        C342   1.405       .  A
C341        H346   1.083       .  S
C342        C343   1.413       .  A
C343        C344   1.405       .  A
C343        O347   1.371       .  S
C344        H348   1.083       .  S
O345        H350   0.991       .  S
O347        H351   0.992       .  S
C353        C354   1.404       .  A
C353        C358   1.397       .  A
C353        H363   1.084       .  S
C354        C359   1.488       .  S
C354        C355   1.412       .  A
C355        C356   1.404       .  A
C355        O360   1.372       .  S
C356        C357   1.402       .  A
C356        H361   1.084       .  S
C357        C358   1.407       .  A
C358        O362   1.372       .  S
C359        C364   1.411       .  A
C359        C368   1.405       .  A
O360        H376   0.991       .  S
O362        H373   0.993       .  S
C364        C365   1.397       .  A
C364        O369   1.372       .  S
C365        C366   1.403       .  A
C365        H370   1.084       .  S
C366        C367   1.412       .  A
C367        C368   1.403       .  A
C367        O371   1.372       .  S
C368        H372   1.083       .  S
O369        H374   0.991       .  S
O371        H375   0.991       .  S
C377        C378   1.406       .  A
C377        C382   1.406       .  A
C377        H387   1.083       .  S
C378        C383   1.484       .  S
C378        C379   1.407       .  A
C379        C380   1.395       .  A
C379        O384   1.372       .  S
C380        C381   1.407       .  A
C380        H385   1.084       .  S
C381        C382   1.410       .  A
C382        O386   1.371       .  S
C383        C388   1.408       .  A
C383        C392   1.404       .  A
O384        H400   0.992       .  S
O386        H397   0.991       .  S
C388        C389   1.404       .  A
C388        O393   1.371       .  S
C389        C390   1.406       .  A
C389        H394   1.083       .  S
C390        C391   1.410       .  A
C391        C392   1.399       .  A
C391        O395   1.372       .  S
C392        H396   1.084       .  S
O393        H398   0.991       .  S
O395        H399   0.994       .  S
C401        C402   1.405       .  A
C401        C406   1.402       .  A
C401        H411   1.083       .  S
C402        C407   1.477       .  S
C402        C403   1.406       .  A
C403        C404   1.392       .  A
C403        O408   1.372       .  S
C404        C405   1.403       .  A
C404        H409   1.084       .  S
C405        C406   1.409       .  A
C406        O410   1.372       .  S
C407        C412   1.405       .  A
C407        C416   1.403       .  A
O408        H424   0.992       .  S
O410        H421   0.992       .  S
C412        C413   1.399       .  A
C412        O417   1.372       .  S
C413        C414   1.406       .  A
C413        H418   1.083       .  S
C414        C415   1.411       .  A
C415        C416   1.395       .  A
C415        O419   1.372       .  S
C416        H420   1.084       .  S
O417        H422   0.992       .  S
O419        H423   0.990       .  S
C425        C426   1.401       .  A
C425        C430   1.395       .  A
C425        H435   1.084       .  S
C426        C431   1.471       .  S
C426        C427   1.403       .  A
C427        C428   1.398       .  A
C427        O432   1.371       .  S
C428        C429   1.406       .  A
C428        H433   1.083       .  S
C429        C430   1.411       .  A
C430        O434   1.372       .  S
C431        C436   1.405       .  A
C431        C440   1.403       .  A
O432        H448   0.992       .  S
O434        H445   0.989       .  S
C436        C437   1.395       .  A
C436        O441   1.372       .  S
C437        C438   1.402       .  A
C437        H442   1.084       .  S
C438        C439   1.407       .  A
C439        C440   1.400       .  A
C439        O443   1.371       .  S
C440        H444   1.084       .  S
O441        H446   0.992       .  S
O443        H447   0.989       .  S
C449        C450   1.403   1_455  A
C449        C454   1.396       .  A
C449        H459   1.083       .  S
C450        C455   1.483       .  S
C450        C451   1.412       .  A
C451        C452   1.397       .  A
C451        O456   1.372       .  S
C452        C453   1.402       .  A
C452        H457   1.084       .  S
C453        C454   1.410   1_655  A
C454        O458   1.372       .  S
C455        C460   1.411   1_655  A
C455        C464   1.402       .  A
O456        H472   0.990       .  S
O458        H469   0.991       .  S
C460        C461   1.401       .  A
C460        O465   1.373       .  S
C461        C462   1.404   1_455  A
C461        H466   1.084       .  S
C462        C463   1.410       .  A
C463        C464   1.393       .  A
C463        O467   1.372       .  S
C464        H468   1.083       .  S
O465        H470   0.991       .  S
O467        H471   0.994       .  S
C473        C474   1.405       .  A
C473        C478   1.398       .  A
C473        H483   1.083       .  S
C474        C479   1.486       .  S
C474        C475   1.411       .  A
C475        C476   1.397       .  A
C475        O480   1.372       .  S
C476        C477   1.403       .  A
C476        H481   1.084       .  S
C477        C478   1.410       .  A
C478        O482   1.372       .  S
C479        C484   1.410       .  A
C479        C488   1.405       .  A
O480        H496   0.992       .  S
O482        H493   0.991       .  S
C484        C485   1.396       .  A
C484        O489   1.372       .  S
C485        C486   1.404       .  A
C485        H490   1.083       .  S
C486        C487   1.411       .  A
C487        C488   1.399       .  A
C487        O491   1.372       .  S
C488        H492   1.083       .  S
O489        H494   0.992       .  S
O491        H495   0.989       .  S
C497        C498   1.401       .  A
C497        C502   1.393       .  A
C497        H507   1.084       .  S
C498        C503   1.483       .  S
C498        C499   1.408       .  A
C499        C500   1.405       .  A
C499        O504   1.372       .  S
C500        C501   1.409       .  A
C500        H505   1.083       .  S
C501        C502   1.413       .  A
C502        O506   1.371       .  S
C503        C508   1.408       .  A
C503        C512   1.404       .  A
O504        H520   0.992       .  S
O506        H517   0.992       .  S
C508        C509   1.403       .  A
C508        O513   1.372       .  S
C509        C510   1.407       .  A
C509        H514   1.083       .  S
C510        C511   1.409       .  A
C511        C512   1.397       .  A
C511        O515   1.371       .  S
C512        H516   1.084       .  S
O513        H518   0.992       .  S
O515        H519   0.990       .  S
C521        C522   1.402       .  A
C521        C526   1.395       .  A
C521        H531   1.084       .  S
C522        C527   1.476       .  S
C522        C523   1.407       .  A
C523        C524   1.400       .  A
C523        O528   1.372       .  S
C524        C525   1.404       .  A
C524        H529   1.084       .  S
C525        C526   1.408       .  A
C526        O530   1.372       .  S
C527        C532   1.407       .  A
C527        C536   1.402       .  A
O528        H544   0.990       .  S
O530        H541   0.995       .  S
C532        C533   1.393       .  A
C532        O537   1.372       .  S
C533        C534   1.403       .  A
C533        H538   1.084       .  S
C534        C535   1.411       .  A
C535        C536   1.401       .  A
C535        O539   1.372       .  S
C536        H540   1.083       .  S
O537        H542   0.993       .  S
O539        H543   0.990       .  S
C545        C546   1.405       .  A
C545        C550   1.401       .  A
C545        H555   1.083       .  S
C546        C551   1.486       .  S
C546        C547   1.409       .  A
C547        C548   1.398       .  A
C547        O552   1.372       .  S
C548        C549   1.406       .  A
C548        H553   1.083       .  S
C549        C550   1.410       .  A
C550        O554   1.371       .  S
C551        C556   1.409       .  A
C551        C560   1.406       .  A
O552        H568   0.991       .  S
O554        H565   0.992       .  S
C556        C557   1.397       .  A
C556        O561   1.372       .  S
C557        C558   1.404       .  A
C557        H562   1.084       .  S
C558        C559   1.410       .  A
C559        C560   1.402       .  A
C559        O563   1.371       .  S
C560        H564   1.083       .  S
O561        H566   0.991       .  S
O563        H567   0.992       .  S
C569        C570   1.408       .  A
C569        C574   1.410       .  A
C569        H579   1.083       .  S
C570        C575   1.486       .  S
C570        C571   1.405       .  A
C571        C572   1.392       .  A
C571        O576   1.372       .  S
C572        C573   1.406       .  A
C572        H577   1.084       .  S
C573        C574   1.411       .  A
C574        O578   1.371       .  S
C575        C580   1.407       .  A
C575        C584   1.405       .  A
O576        H592   0.991       .  S
O578        H589   0.990       .  S
C580        C581   1.404       .  A
C580        O585   1.371       .  S
C581        C582   1.406       .  A
C581        H586   1.083       .  S
C582        C583   1.409       .  A
C583        C584   1.397       .  A
C583        O587   1.372       .  S
C584        H588   1.084       .  S
O585        H590   0.989       .  S
O587        H591   0.991       .  S
C593        C594   1.399       .  A
C593        C598   1.394       .  A
C593        H603   1.084       .  S
C594        C599   1.471       .  S
C594        C595   1.404       .  A
C595        C596   1.402       .  A
C595        O600   1.372       .  S
C596        C597   1.407       .  A
C596        H601   1.083       .  S
C597        C598   1.412       .  A
C598        O602   1.372       .  S
C599        C604   1.406       .  A
C599        C608   1.400       .  A
O600        H616   0.994       .  S
O602        H613   0.990       .  S
C604        C605   1.397       .  A
C604        O609   1.372       .  S
C605        C606   1.405       .  A
C605        H610   1.083       .  S
C606        C607   1.412       .  A
C607        C608   1.398       .  A
C607        O611   1.371       .  S
C608        H612   1.084       .  S
O609        H614   0.991       .  S
O611        H615   0.992       .  S
C617        C618   1.405       .  A
C617        C622   1.405       .  A
C617        H627   1.083       .  S
C618        C623   1.485       .  S
C618        C619   1.410       .  A
C619        C620   1.394       .  A
C619        O624   1.372       .  S
C620        C621   1.402       .  A
C620        H625   1.084       .  S
C621        C622   1.412       .  A
C622        O626   1.371       .  S
C623        C628   1.411       .  A
C623        C632   1.402       .  A
O624        H640   0.992       .  S
O626        H637   0.991       .  S
C628        C629   1.405       .  A
C628        O633   1.371       .  S
C629        C630   1.405       .  A
C629        H634   1.083       .  S
C630        C631   1.409       .  A
C631        C632   1.394       .  A
C631        O635   1.372       .  S
C632        H636   1.084       .  S
O633        H638   0.992       .  S
O635        H639   0.993       .  S
C641        C642   1.403       .  A
C641        C646   1.397       .  A
C641        H651   1.083       .  S
C642        C647   1.479       .  S
C642        C643   1.407       .  A
C643        C644   1.396       .  A
C643        O648   1.371       .  S
C644        C645   1.404       .  A
C644        H649   1.083       .  S
C645        C646   1.411       .  A
C646        O650   1.372       .  S
C647        C652   1.407       .  A
C647        C656   1.403       .  A
O648        H664   0.992       .  S
O650        H661   0.992       .  S
C652        C653   1.399       .  A
C652        O657   1.372       .  S
C653        C654   1.403       .  A
C653        H658   1.083       .  S
C654        C655   1.411       .  A
C655        C656   1.397       .  A
C655        O659   1.372       .  S
C656        H660   1.084       .  S
O657        H662   0.991       .  S
O659        H663   0.993       .  S
C665        C666   1.409       .  A
C665        C670   1.408       .  A
C665        H675   1.083       .  S
C666        C671   1.488       .  S
C666        C667   1.407       .  A
C667        C668   1.393       .  A
C667        O672   1.372       .  S
C668        C669   1.404       .  A
C668        H673   1.084       .  S
C669        C670   1.410       .  A
C670        O674   1.371       .  S
C671        C676   1.408       .  A
C671        C680   1.405       .  A
O672        H688   0.992       .  S
O674        H685   0.992       .  S
C676        C677   1.404       .  A
C676        O681   1.371       .  S
C677        C678   1.408       .  A
C677        H682   1.083       .  S
C678        C679   1.409       .  A
C679        C680   1.398       .  A
C679        O683   1.372       .  S
C680        H684   1.084       .  S
O681        H686   0.992       .  S
O683        H687   0.992       .  S
C689        C690   1.403       .  A
C689        C694   1.403       .  A
C689        H699   1.083       .  S
C690        C695   1.477       .  S
C690        C691   1.406       .  A
C691        C692   1.396       .  A
C691        O696   1.372       .  S
C692        C693   1.403       .  A
C692        H697   1.084       .  S
C693        C694   1.408       .  A
C694        O698   1.371       .  S
C695        C700   1.405       .  A
C695        C704   1.402       .  A
O696        H712   0.992       .  S
O698        H709   0.992       .  S
C700        C701   1.401       .  A
C700        O705   1.371       .  S
C701        C702   1.407       .  A
C701        H706   1.083       .  S
C702        C703   1.411       .  A
C703        C704   1.397       .  A
C703        O707   1.372       .  S
C704        H708   1.084       .  S
O705        H710   0.992       .  S
O707        H711   0.991       .  S
C713        C714   1.403       .  A
C713        C718   1.398       .  A
C713        H723   1.084       .  S
C714        C719   1.473       .  S
C714        C715   1.402       .  A
C715        C716   1.398       .  A
C715        O720   1.371       .  S
C716        C717   1.407       .  A
C716        H721   1.083       .  S
C717        C718   1.411       .  A
C718        O722   1.372       .  S
C719        C724   1.402       .  A
C719        C728   1.405       .  A
O720        H736   0.992       .  S
O722        H733   0.990       .  S
C724        C725   1.390       .  A
C724        O729   1.372       .  S
C725        C726   1.405       .  A
C725        H730   1.084       .  S
C726        C727   1.409       .  A
C727        C728   1.404       .  A
C727        O731   1.372       .  S
C728        H732   1.083       .  S
O729        H734   0.993       .  S
O731        H735   0.992       .  S
C737        C738   1.404       .  A
C737        C742   1.397       .  A
C737        H747   1.084       .  S
C738        C743   1.476       .  S
C738        C739   1.408       .  A
C739        C740   1.395       .  A
C739        O744   1.372       .  S
C740        C741   1.403       .  A
C740        H745   1.084       .  S
C741        C742   1.407       .  A
C742        O746   1.372       .  S
C743        C748   1.407       .  A
C743        C752   1.401       .  A
O744        H760   0.992       .  S
O746        H757   0.990       .  S
C748        C749   1.397       .  A
C748        O753   1.372       .  S
C749        C750   1.405       .  A
C749        H754   1.083       .  S
C750        C751   1.412       .  A
C751        C752   1.396       .  A
C751        O755   1.372       .  S
C752        H756   1.084       .  S
O753        H758   0.992       .  S
O755        H759   0.991       .  S
C761        C762   1.402       .  A
C761        C766   1.396       .  A
C761        H771   1.084       .  S
C762        C767   1.477       .  S
C762        C763   1.409       .  A
C763        C764   1.397       .  A
C763        O768   1.372       .  S
C764        C765   1.401       .  A
C764        H769   1.084       .  S
C765        C766   1.410       .  A
C766        O770   1.372       .  S
C767        C772   1.407       .  A
C767        C776   1.403       .  A
O768        H784   0.990       .  S
O770        H781   0.992       .  S
C772        C773   1.395       .  A
C772        O777   1.372       .  S
C773        C774   1.404       .  A
C773        H778   1.084       .  S
C774        C775   1.411       .  A
C775        C776   1.398       .  A
C775        O779   1.371       .  S
C776        H780   1.084       .  S
O777        H782   0.990       .  S
O779        H783   0.991       .  S
C785        C786   1.404       .  A
C785        C790   1.402       .  A
C785        H795   1.083       .  S
C786        C791   1.478       .  S
C786        C787   1.405       .  A
C787        C788   1.393       .  A
C787        O792   1.372       .  S
C788        C789   1.407       .  A
C788        H793   1.083       .  S
C789        C790   1.411       .  A
C790        O794   1.371       .  S
C791        C796   1.406       .  A
C791        C800   1.403       .  A
O792        H808   0.990       .  S
O794        H805   0.992       .  S
C796        C797   1.399       .  A
C796        O801   1.372       .  S
C797        C798   1.405       .  A
C797        H802   1.083       .  S
C798        C799   1.410       .  A
C799        C800   1.397       .  A
C799        O803   1.372       .  S
C800        H804   1.084       .  S
O801        H806   0.992       .  S
O803        H807   0.990       .  S
C809        C810   1.404       .  A
C809        C814   1.401       .  A
C809        H819   1.083       .  S
C810        C815   1.486       .  S
C810        C811   1.408       .  A
C811        C812   1.399       .  A
C811        O816   1.372       .  S
C812        C813   1.407       .  A
C812        H817   1.083       .  S
C813        C814   1.413       .  A
C814        O818   1.371       .  S
C815        C820   1.407       .  A
C815        C824   1.404       .  A
O816        H832   0.991       .  S
O818        H829   0.991       .  S
C820        C821   1.401   1_545  A
C820        O825   1.372       .  S
C821        C822   1.409       .  A
C821        H826   1.083       .  S
C822        C823   1.412       .  A
C823        C824   1.402   1_565  A
C823        O827   1.371       .  S
C824        H828   1.084       .  S
O825        H830   0.992       .  S
O827        H831   0.990       .  S
C833        C834   1.401       .  A
C833        C838   1.399       .  A
C833        H843   1.084       .  S
C834        C839   1.469       .  S
C834        C835   1.403       .  A
C835        C836   1.395       .  A
C835        O840   1.371       .  S
C836        C837   1.405       .  A
C836        H841   1.083       .  S
C837        C838   1.412       .  A
C838        O842   1.372       .  S
C839        C844   1.405       .  A
C839        C848   1.397       .  A
O840        H856   0.995       .  S
O842        H853   0.991       .  S
C844        C845   1.401       .  A
C844        O849   1.371       .  S
C845        C846   1.406       .  A
C845        H850   1.083       .  S
C846        C847   1.415       .  A
C847        C848   1.394       .  A
C847        O851   1.372       .  S
C848        H852   1.084       .  S
O849        H854   0.993       .  S
O851        H855   0.990       .  S
C857        C858   1.403       .  A
C857        C862   1.402       .  A
C857        H867   1.084       .  S
C858        C863   1.476       .  S
C858        C859   1.404       .  A
C859        C860   1.394       .  A
C859        O864   1.373       .  S
C860        C861   1.409       .  A
C860        H865   1.083       .  S
C861        C862   1.413       .  A
C862        O866   1.371       .  S
C863        C868   1.408       .  A
C863        C872   1.401       .  A
O864        H880   0.993       .  S
O866        H877   0.992       .  S
C868        C869   1.397       .  A
C868        O873   1.372       .  S
C869        C870   1.403       .  A
C869        H874   1.084       .  S
C870        C871   1.411       .  A
C871        C872   1.398       .  A
C871        O875   1.372       .  S
C872        H876   1.084       .  S
O873        H878   0.992       .  S
O875        H879   0.990       .  S
C881        C882   1.402       .  A
C881        C886   1.400       .  A
C881        H891   1.084       .  S
C882        C887   1.471       .  S
C882        C883   1.405       .  A
C883        C884   1.393       .  A
C883        O888   1.372       .  S
C884        C885   1.404       .  A
C884        H889   1.084       .  S
C885        C886   1.411       .  A
C886        O890   1.372       .  S
C887        C892   1.405       .  A
C887        C896   1.400       .  A
O888        H904   0.995       .  S
O890        H901   0.989       .  S
C892        C893   1.397       .  A
C892        O897   1.371       .  S
C893        C894   1.406       .  A
C893        H898   1.083       .  S
C894        C895   1.411       .  A
C895        C896   1.396       .  A
C895        O899   1.372       .  S
C896        H900   1.084       .  S
O897        H902   0.994       .  S
O899        H903   0.989       .  S
C905        C906   1.400       .  A
C905        C910   1.397       .  A
C905        H915   1.084       .  S
C906        C911   1.476       .  S
C906        C907   1.406       .  A
C907        C908   1.402       .  A
C907        O912   1.372       .  S
C908        C909   1.407       .  A
C908        H913   1.083       .  S
C909        C910   1.412       .  A
C910        O914   1.372       .  S
C911        C916   1.408       .  A
C911        C920   1.401       .  A
O912        H928   0.992       .  S
O914        H925   0.991       .  S
C916        C917   1.402       .  A
C916        O921   1.371       .  S
C917        C918   1.403       .  A
C917        H922   1.084       .  S
C918        C919   1.408       .  A
C919        C920   1.397       .  A
C919        O923   1.372       .  S
C920        H924   1.084       .  S
O921        H926   0.994       .  S
O923        H927   0.988       .  S
C929        C930   1.398       .  A
C929        C934   1.395       .  A
C929        H939   1.084       .  S
C930        C935   1.470       .  S
C930        C931   1.404       .  A
C931        C932   1.401       .  A
C931        O936   1.371       .  S
C932        C933   1.407       .  A
C932        H937   1.083       .  S
C933        C934   1.413       .  A
C934        O938   1.372       .  S
C935        C940   1.404       .  A
C935        C944   1.400       .  A
O936        H952   0.993       .  S
O938        H949   0.989       .  S
C940        C941   1.398       .  A
C940        O945   1.371       .  S
C941        C942   1.405       .  A
C941        H946   1.083       .  S
C942        C943   1.412       .  A
C943        C944   1.397       .  A
C943        O947   1.372       .  S
C944        H948   1.084       .  S
O945        H950   0.994       .  S
O947        H951   0.991       .  S
C953        C954   1.403       .  A
C953        C958   1.398       .  A
C953        H963   1.084       .  S
C954        C959   1.476       .  S
C954        C955   1.404       .  A
C955        C956   1.400       .  A
C955        O960   1.371       .  S
C956        C957   1.406       .  A
C956        H961   1.084       .  S
C957        C958   1.408       .  A
C958        O962   1.372       .  S
C959        C964   1.403       .  A
C959        C968   1.403       .  A
O960        H976   0.992       .  S
O962        H973   0.990       .  S
C964        C965   1.394       .  A
C964        O969   1.372       .  S
C965        C966   1.407       .  A
C965        H970   1.084       .  S
C966        C967   1.413       .  A
C967        C968   1.406       .  A
C967        O971   1.371       .  S
C968        H972   1.083       .  S
O969        H974   0.996       .  S
O971        H975   0.992       .  S
C977        C978   1.398       .  A
C977        C982   1.394       .  A
C977        H987   1.084       .  S
C978        C983   1.469       .  S
C978        C979   1.405       .  A
C979        C980   1.400       .  A
C979        O984   1.372       .  S
C980        C981   1.406       .  A
C980        H985   1.083       .  S
C981        C982   1.413       .  A
C982        O986   1.372       .  S
C983        C988   1.405       .  A
C983        C992   1.400       .  A
O984       H1000   0.992       .  S
O986        H997   0.989       .  S
C988        C989   1.395       .  A
C988        O993   1.372       .  S
C989        C990   1.405       .  A
C989        H994   1.083       .  S
C990        C991   1.412       .  A
C991        C992   1.399       .  A
C991        O995   1.371       .  S
C992        H996   1.084       .  S
O993        H998   0.990       .  S
O995        H999   0.991       .  S
C1001      C1002   1.404       .  A
C1001      C1006   1.402       .  A
C1001      H1011   1.083       .  S
C1002      C1007   1.484       .  S
C1002      C1003   1.408       .  A
C1003      C1004   1.399       .  A
C1003      O1008   1.372       .  S
C1004      C1005   1.406       .  A
C1004      H1009   1.083       .  S
C1005      C1006   1.411       .  A
C1006      O1010   1.371       .  S
C1007      C1012   1.408       .  A
C1007      C1016   1.405       .  A
O1008      H1024   0.990       .  S
O1010      H1021   0.992       .  S
C1012      C1013   1.397       .  A
C1012      O1017   1.372       .  S
C1013      C1014   1.405       .  A
C1013      H1018   1.083       .  S
C1014      C1015   1.412       .  A
C1015      C1016   1.404       .  A
C1015      O1019   1.371       .  S
C1016      H1020   1.083       .  S
O1017      H1022   0.994       .  S
O1019      H1023   0.990       .  S
C1025      C1026   1.400       .  A
C1025      C1030   1.393       .  A
C1025      H1035   1.084       .  S
C1026      C1031   1.475       .  S
C1026      C1027   1.407       .  A
C1027      C1028   1.403       .  A
C1027      O1032   1.372       .  S
C1028      C1029   1.406       .  A
C1028      H1033   1.083       .  S
C1029      C1030   1.411       .  A
C1030      O1034   1.372       .  S
C1031      C1036   1.406       .  A
C1031      C1040   1.403       .  A
O1032      H1048   0.992       .  S
O1034      H1045   0.991       .  S
C1036      C1037   1.393       .  A
C1036      O1041   1.372       .  S
C1037      C1038   1.403       .  A
C1037      H1042   1.084       .  S
C1038      C1039   1.411       .  A
C1039      C1040   1.403       .  A
C1039      O1043   1.372       .  S
C1040      H1044   1.084       .  S
O1041      H1046   0.992       .  S
O1043      H1047   0.992       .  S
C1049      C1050   1.401       .  A
C1049      C1054   1.393       .  A
C1049      H1059   1.084       .  S
C1050      C1055   1.481       .  S
C1050      C1051   1.409       .  A
C1051      C1052   1.404       .  A
C1051      O1056   1.372       .  S
C1052      C1053   1.408       .  A
C1052      H1057   1.083       .  S
C1053      C1054   1.410       .  A
C1054      O1058   1.371       .  S
C1055      C1060   1.409       .  A
C1055      C1064   1.404       .  A
O1056      H1072   0.992       .  S
O1058      H1069   0.994       .  S
C1060      C1061   1.395       .  A
C1060      O1065   1.373       .  S
C1061      C1062   1.401       .  A
C1061      H1066   1.084       .  S
C1062      C1063   1.409       .  A
C1063      C1064   1.402       .  A
C1063      O1067   1.372       .  S
C1064      H1068   1.083       .  S
O1065      H1070   0.992       .  S
O1067      H1071   0.991       .  S
C1073      C1074   1.400       .  A
C1073      C1078   1.392       .  A
C1073      H1083   1.084       .  S
C1074      C1079   1.475       .  S
C1074      C1075   1.407       .  A
C1075      C1076   1.404       .  A
C1075      O1080   1.371       .  S
C1076      C1077   1.407       .  A
C1076      H1081   1.083       .  S
C1077      C1078   1.410       .  A
C1078      O1082   1.372   1_554  S
C1079      C1084   1.406       .  A
C1079      C1088   1.401       .  A
O1080      H1096   0.992       .  S
O1082      H1093   0.993       .  S
C1084      C1085   1.394       .  A
C1084      O1089   1.372       .  S
C1085      C1086   1.403       .  A
C1085      H1090   1.083       .  S
C1086      C1087   1.414       .  A
C1087      C1088   1.404       .  A
C1087      O1091   1.372       .  S
C1088      H1092   1.084       .  S
O1089      H1094   0.992       .  S
O1091      H1095   0.992       .  S
C1097      C1098   1.404       .  A
C1097      C1102   1.397       .  A
C1097      H1107   1.084       .  S
C1098      C1103   1.483       .  S
C1098      C1099   1.408       .  A
C1099      C1100   1.403       .  A
C1099      O1104   1.372       .  S
C1100      C1101   1.407       .  A
C1100      H1105   1.083       .  S
C1101      C1102   1.409       .  A
C1102      O1106   1.372       .  S
C1103      C1108   1.410       .  A
C1103      C1112   1.404       .  A
O1104      H1120   0.996       .  S
O1106      H1117   0.990       .  S
C1108      C1109   1.401       .  A
C1108      O1113   1.371       .  S
C1109      C1110   1.404       .  A
C1109      H1114   1.084       .  S
C1110      C1111   1.408       .  A
C1111      C1112   1.396       .  A
C1111      O1115   1.372   1_554  S
C1112      H1116   1.084   1_554  S
O1113      H1118   0.992       .  S
O1115      H1119   0.990       .  S
C1121      C1122   1.402   1_455  A
C1121      C1126   1.398       .  A
C1121      H1131   1.083   1_455  S
C1122      C1127   1.484       .  S
C1122      C1123   1.410   1_665  A
C1123      C1124   1.398       .  A
C1123      O1128   1.372       .  S
C1124      C1125   1.407   1_545  A
C1124      H1129   1.083       .  S
C1125      C1126   1.414       .  A
C1126      O1130   1.371       .  S
C1127      C1132   1.412       .  A
C1127      C1136   1.402   1_565  A
O1128      H1144   0.992   1_455  S
O1130      H1141   0.993       .  S
C1132      C1133   1.400       .  A
C1132      O1137   1.372   1_554  S
C1133      C1134   1.404       .  A
C1133      H1138   1.084   1_554  S
C1134      C1135   1.410   1_565  A
C1135      C1136   1.396       .  A
C1135      O1139   1.372       .  S
C1136      H1140   1.083       .  S
O1137      H1142   0.992       .  S
O1139      H1143   0.983       .  S
C1145      C1146   1.405   1_455  A
C1145      C1150   1.404       .  A
C1145      H1155   1.083       .  S
C1146      C1151   1.486       .  S
C1146      C1147   1.408       .  A
C1147      C1148   1.399       .  A
C1147      O1152   1.372       .  S
C1148      C1149   1.404       .  A
C1148      H1153   1.084       .  S
C1149      C1150   1.411   1_655  A
C1150      O1154   1.372       .  S
C1151      C1156   1.407   1_655  A
C1151      C1160   1.403       .  A
O1152      H1168   0.991       .  S
O1154      H1165   0.990       .  S
C1156      C1157   1.402       .  A
C1156      O1161   1.371       .  S
C1157      C1158   1.407   1_455  A
C1157      H1162   1.083       .  S
C1158      C1159   1.417       .  A
C1159      C1160   1.402       .  A
C1159      O1163   1.372       .  S
C1160      H1164   1.084       .  S
O1161      H1166   0.993       .  S
O1163      H1167   0.992       .  S
C1169      C1170   1.400       .  A
C1169      C1174   1.396       .  A
C1169      H1179   1.084       .  S
C1170      C1175   1.478       .  S
C1170      C1171   1.406       .  A
C1171      C1172   1.403       .  A
C1171      O1176   1.371       .  S
C1172      C1173   1.407       .  A
C1172      H1177   1.083       .  S
C1173      C1174   1.414       .  A
C1174      O1178   1.371       .  S
C1175      C1180   1.408       .  A
C1175      C1184   1.400       .  A
O1176      H1192   0.992       .  S
O1178      H1189   0.992       .  S
C1180      C1181   1.401       .  A
C1180      O1185   1.372       .  S
C1181      C1182   1.404       .  A
C1181      H1186   1.084       .  S
C1182      C1183   1.412       .  A
C1183      C1184   1.400       .  A
C1183      O1187   1.371       .  S
C1184      H1188   1.084       .  S
O1185      H1190   0.993       .  S
O1187      H1191   0.991       .  S
C1193      C1194   1.399       .  A
C1193      C1198   1.395       .  A
C1193      H1203   1.084       .  S
C1194      C1199   1.474       .  S
C1194      C1195   1.406       .  A
C1195      C1196   1.403       .  A
C1195      O1200   1.371       .  S
C1196      C1197   1.406       .  A
C1196      H1201   1.083       .  S
C1197      C1198   1.412       .  A
C1198      O1202   1.371       .  S
C1199      C1204   1.407       .  A
C1199      C1208   1.400       .  A
O1200      H1216   0.991       .  S
O1202      H1213   0.993       .  S
C1204      C1205   1.402       .  A
C1204      O1209   1.371       .  S
C1205      C1206   1.405       .  A
C1205      H1210   1.083       .  S
C1206      C1207   1.410       .  A
C1207      C1208   1.394       .  A
C1207      O1211   1.372       .  S
C1208      H1212   1.084       .  S
O1209      H1214   0.992       .  S
O1211      H1215   0.990       .  S
C1217      C1218   1.402       .  A
C1217      C1222   1.395       .  A
C1217      H1227   1.083       .  S
C1218      C1223   1.481       .  S
C1218      C1219   1.409       .  A
C1219      C1220   1.400       .  A
C1219      O1224   1.371       .  S
C1220      C1221   1.405       .  A
C1220      H1225   1.083       .  S
C1221      C1222   1.410       .  A
C1222      O1226   1.371       .  S
C1223      C1228   1.408       .  A
C1223      C1232   1.403       .  A
O1224      H1240   0.993       .  S
O1226      H1237   0.993       .  S
C1228      C1229   1.402       .  A
C1228      O1233   1.373       .  S
C1229      C1230   1.405       .  A
C1229      H1234   1.083       .  S
C1230      C1231   1.411       .  A
C1231      C1232   1.396       .  A
C1231      O1235   1.372       .  S
C1232      H1236   1.084       .  S
O1233      H1238   0.992       .  S
O1235      H1239   0.991       .  S
C1241      C1242   1.401       .  A
C1241      C1246   1.396       .  A
C1241      H1251   1.084       .  S
C1242      C1247   1.474       .  S
C1242      C1243   1.406       .  A
C1243      C1244   1.398       .  A
C1243      O1248   1.371       .  S
C1244      C1245   1.404       .  A
C1244      H1249   1.083       .  S
C1245      C1246   1.413       .  A
C1246      O1250   1.372       .  S
C1247      C1252   1.405       .  A
C1247      C1256   1.400       .  A
O1248      H1264   0.991       .  S
O1250      H1261   0.992       .  S
C1252      C1253   1.400       .  A
C1252      O1257   1.372       .  S
C1253      C1254   1.405       .  A
C1253      H1258   1.083       .  S
C1254      C1255   1.413       .  A
C1255      C1256   1.397       .  A
C1255      O1259   1.372       .  S
C1256      H1260   1.084       .  S
O1257      H1262   0.991       .  S
O1259      H1263   0.991       .  S
C1265      C1266   1.400       .  A
C1265      C1270   1.393       .  A
C1265      H1275   1.084       .  S
C1266      C1271   1.477       .  S
C1266      C1267   1.408       .  A
C1267      C1268   1.404       .  A
C1267      O1272   1.373       .  S
C1268      C1269   1.406       .  A
C1268      H1273   1.083       .  S
C1269      C1270   1.411       .  A
C1270      O1274   1.372       .  S
C1271      C1276   1.407       .  A
C1271      C1280   1.404       .  A
O1272      H1288   0.992       .  S
O1274      H1285   0.991       .  S
C1276      C1277   1.397       .  A
C1276      O1281   1.372       .  S
C1277      C1278   1.403       .  A
C1277      H1282   1.084       .  S
C1278      C1279   1.409       .  A
C1279      C1280   1.398       .  A
C1279      O1283   1.372       .  S
C1280      H1284   1.084       .  S
O1281      H1286   0.992       .  S
O1283      H1287   0.992       .  S
C1289      C1290   1.401       .  A
C1289      C1294   1.394       .  A
C1289      H1299   1.084       .  S
C1290      C1295   1.473       .  S
C1290      C1291   1.405       .  A
C1291      C1292   1.400       .  A
C1291      O1296   1.372       .  S
C1292      C1293   1.406       .  A
C1292      H1297   1.083       .  S
C1293      C1294   1.411       .  A
C1294      O1298   1.372       .  S
C1295      C1300   1.406       .  A
C1295      C1304   1.401       .  A
O1296      H1312   0.992       .  S
O1298      H1309   0.993       .  S
C1300      C1301   1.396       .  A
C1300      O1305   1.372       .  S
C1301      C1302   1.406       .  A
C1301      H1306   1.084       .  S
C1302      C1303   1.409       .  A
C1303      C1304   1.395       .  A
C1303      O1307   1.371       .  S
C1304      H1308   1.084       .  S
O1305      H1310   0.993       .  S
O1307      H1311   0.992       .  S
C1313      C1314   1.402       .  A
C1313      C1318   1.399       .  A
C1313      H1323   1.084       .  S
C1314      C1319   1.476       .  S
C1314      C1315   1.406       .  A
C1315      C1316   1.397       .  A
C1315      O1320   1.372       .  S
C1316      C1317   1.405       .  A
C1316      H1321   1.083       .  S
C1317      C1318   1.411       .  A
C1318      O1322   1.371       .  S
C1319      C1324   1.406       .  A
C1319      C1328   1.402       .  A
O1320      H1336   0.989       .  S
O1322      H1333   0.991       .  S
C1324      C1325   1.397       .  A
C1324      O1329   1.372       .  S
C1325      C1326   1.406       .  A
C1325      H1330   1.083       .  S
C1326      C1327   1.412       .  A
C1327      C1328   1.402       .  A
C1327      O1331   1.371       .  S
C1328      H1332   1.084       .  S
O1329      H1334   0.994       .  S
O1331      H1335   0.991       .  S
C1337      C1338   1.402       .  A
C1337      C1342   1.397       .  A
C1337      H1347   1.083       .  S
C1338      C1343   1.477       .  S
C1338      C1339   1.407       .  A
C1339      C1340   1.398   1_556  A
C1339      O1344   1.371       .  S
C1340      C1341   1.404       .  A
C1340      H1345   1.083       .  S
C1341      C1342   1.410   1_554  A
C1342      O1346   1.372       .  S
C1343      C1348   1.406       .  A
C1343      C1352   1.402       .  A
O1344      H1360   0.992       .  S
O1346      H1357   0.989       .  S
C1348      C1349   1.401       .  A
C1348      O1353   1.372       .  S
C1349      C1350   1.406       .  A
C1349      H1354   1.083       .  S
C1350      C1351   1.410       .  A
C1351      C1352   1.395       .  A
C1351      O1355   1.371       .  S
C1352      H1356   1.084       .  S
O1353      H1358   0.993       .  S
O1355      H1359   0.991       .  S
C1361      C1362   1.400       .  A
C1361      C1366   1.400       .  A
C1361      H1371   1.084       .  S
C1362      C1367   1.474       .  S
C1362      C1363   1.407       .  A
C1363      C1364   1.397       .  A
C1363      O1368   1.374       .  S
C1364      C1365   1.403       .  A
C1364      H1369   1.084       .  S
C1365      C1366   1.412       .  A
C1366      O1370   1.371       .  S
C1367      C1372   1.405       .  A
C1367      C1376   1.403       .  A
O1368      H1384   0.990       .  S
O1370      H1381   0.992       .  S
C1372      C1373   1.390       .  A
C1372      O1377   1.372       .  S
C1373      C1374   1.402       .  A
C1373      H1378   1.084       .  S
C1374      C1375   1.412       .  A
C1375      C1376   1.403       .  A
C1375      O1379   1.372       .  S
C1376      H1380   1.084       .  S
O1377      H1382   0.992       .  S
O1379      H1383   0.992       .  S
C1385      C1386   1.404       .  A
C1385      C1390   1.401       .  A
C1385      H1395   1.084       .  S
C1386      C1391   1.474       .  S
C1386      C1387   1.406       .  A
C1387      C1388   1.392       .  A
C1387      O1392   1.372       .  S
C1388      C1389   1.403       .  A
C1388      H1393   1.084       .  S
C1389      C1390   1.408       .  A
C1390      O1394   1.372       .  S
C1391      C1396   1.406       .  A
C1391      C1400   1.401       .  A
O1392      H1408   0.992       .  S
O1394      H1405   0.991       .  S
C1396      C1397   1.399       .  A
C1396      O1401   1.371       .  S
C1397      C1398   1.405       .  A
C1397      H1402   1.083       .  S
C1398      C1399   1.410       .  A
C1399      C1400   1.393       .  A
C1399      O1403   1.372       .  S
C1400      H1404   1.084       .  S
O1401      H1406   0.992       .  S
O1403      H1407   0.990       .  S
C1409      C1410   1.404       .  A
C1409      C1414   1.395       .  A
C1409      H1419   1.084       .  S
C1410      C1415   1.482       .  S
C1410      C1411   1.411       .  A
C1411      C1412   1.401       .  A
C1411      O1416   1.372       .  S
C1412      C1413   1.402       .  A
C1412      H1417   1.084       .  S
C1413      C1414   1.406       .  A
C1414      O1418   1.372       .  S
C1415      C1420   1.409       .  A
C1415      C1424   1.403       .  A
O1416      H1432   0.991       .  S
O1418      H1429   0.992       .  S
C1420      C1421   1.395       .  A
C1420      O1425   1.372       .  S
C1421      C1422   1.402       .  A
C1421      H1426   1.083       .  S
C1422      C1423   1.413       .  A
C1423      C1424   1.402       .  A
C1423      O1427   1.372       .  S
C1424      H1428   1.083       .  S
O1425      H1430   0.991       .  S
O1427      H1431   0.990       .  S
C1433      C1434   1.404       .  A
C1433      C1438   1.395       .  A
C1433      H1443   1.083       .  S
C1434      C1439   1.488       .  S
C1434      C1435   1.410       .  A
C1435      C1436   1.404       .  A
C1435      O1440   1.372       .  S
C1436      C1437   1.407       .  A
C1436      H1441   1.083       .  S
C1437      C1438   1.409       .  A
C1438      O1442   1.372       .  S
C1439      C1444   1.411       .  A
C1439      C1448   1.407       .  A
O1440      H1456   0.992       .  S
O1442      H1453   0.993       .  S
C1444      C1445   1.396       .  A
C1444      O1449   1.373       .  S
C1445      C1446   1.401       .  A
C1445      H1450   1.084       .  S
C1446      C1447   1.410       .  A
C1447      C1448   1.404       .  A
C1447      O1451   1.372       .  S
C1448      H1452   1.083       .  S
O1449      H1454   0.993       .  S
O1451      H1455   0.991       .  S
C1457      C1458   1.405       .  A
C1457      C1462   1.398       .  A
C1457      H1467   1.083       .  S
C1458      C1463   1.487   1_565  S
C1458      C1459   1.413       .  A
C1459      C1460   1.398       .  A
C1459      O1464   1.372       .  S
C1460      C1461   1.402       .  A
C1460      H1465   1.084       .  S
C1461      C1462   1.409       .  A
C1462      O1466   1.372       .  S
C1463      C1468   1.412       .  A
C1463      C1472   1.405       .  A
O1464      H1480   0.992       .  S
O1466      H1477   0.990       .  S
C1468      C1469   1.398       .  A
C1468      O1473   1.372       .  S
C1469      C1470   1.404       .  A
C1469      H1474   1.084       .  S
C1470      C1471   1.410       .  A
C1471      C1472   1.396       .  A
C1471      O1475   1.372       .  S
C1472      H1476   1.083       .  S
O1473      H1478   0.992       .  S
O1475      H1479   0.990       .  S
C1481      C1482   1.403       .  A
C1481      C1486   1.400       .  A
C1481      H1491   1.084       .  S
C1482      C1487   1.477       .  S
C1482      C1483   1.406       .  A
C1483      C1484   1.397       .  A
C1483      O1488   1.373       .  S
C1484      C1485   1.405       .  A
C1484      H1489   1.083       .  S
C1485      C1486   1.411       .  A
C1486      O1490   1.371       .  S
C1487      C1492   1.408       .  A
C1487      C1496   1.399       .  A
O1488      H1504   0.991       .  S
O1490      H1501   0.992       .  S
C1492      C1493   1.400       .  A
C1492      O1497   1.372       .  S
C1493      C1494   1.405       .  A
C1493      H1498   1.083       .  S
C1494      C1495   1.413       .  A
C1495      C1496   1.396       .  A
C1495      O1499   1.372       .  S
C1496      H1500   1.084       .  S
O1497      H1502   0.989       .  S
O1499      H1503   0.990       .  S
C1505      C1506   1.402       .  A
C1505      C1510   1.400       .  A
C1505      H1515   1.084       .  S
C1506      C1511   1.473       .  S
C1506      C1507   1.406       .  A
C1507      C1508   1.395       .  A
C1507      O1512   1.373       .  S
C1508      C1509   1.404       .  A
C1508      H1513   1.084       .  S
C1509      C1510   1.409       .  A
C1510      O1514   1.371       .  S
C1511      C1516   1.407       .  A
C1511      C1520   1.400       .  A
O1512      H1528   0.990       .  S
O1514      H1525   0.992       .  S
C1516      C1517   1.397   1_556  A
C1516      O1521   1.371   1_556  S
C1517      C1518   1.403       .  A
C1517      H1522   1.083       .  S
C1518      C1519   1.411   1_554  A
C1519      C1520   1.395       .  A
C1519      O1523   1.372       .  S
C1520      H1524   1.084       .  S
O1521      H1526   0.988   1_554  S
O1523      H1527   0.991   1_556  S
C1529      C1530   1.402       .  A
C1529      C1534   1.400       .  A
C1529      H1539   1.083       .  S
C1530      C1535   1.478       .  S
C1530      C1531   1.408       .  A
C1531      C1532   1.395       .  A
C1531      O1536   1.372       .  S
C1532      C1533   1.404       .  A
C1532      H1537   1.083       .  S
C1533      C1534   1.412       .  A
C1534      O1538   1.371       .  S
C1535      C1540   1.408       .  A
C1535      C1544   1.402       .  A
O1536      H1552   0.990       .  S
O1538      H1549   0.991       .  S
C1540      C1541   1.401       .  A
C1540      O1545   1.371       .  S
C1541      C1542   1.403       .  A
C1541      H1546   1.084       .  S
C1542      C1543   1.409       .  A
C1543      C1544   1.394       .  A
C1543      O1547   1.372       .  S
C1544      H1548   1.084       .  S
O1545      H1550   0.994       .  S
O1547      H1551   0.993       .  S
C1553      C1554   1.408       .  A
C1553      C1558   1.402       .  A
C1553      H1563   1.083       .  S
C1554      C1559   1.485       .  S
C1554      C1555   1.410       .  A
C1555      C1556   1.394       .  A
C1555      O1560   1.372       .  S
C1556      C1557   1.400       .  A
C1556      H1561   1.084       .  S
C1557      C1558   1.406       .  A
C1558      O1562   1.371       .  S
C1559      C1564   1.409       .  A
C1559      C1568   1.406       .  A
O1560      H1576   0.991       .  S
O1562      H1573   0.988       .  S
C1564      C1565   1.401       .  A
C1564      O1569   1.372       .  S
C1565      C1566   1.404       .  A
C1565      H1570   1.084       .  S
C1566      C1567   1.407       .  A
C1567      C1568   1.395       .  A
C1567      O1571   1.372       .  S
C1568      H1572   1.083       .  S
O1569      H1574   0.993       .  S
O1571      H1575   0.988       .  S
C1577      C1578   1.405   1_665  A
C1577      C1582   1.398       .  A
C1577      H1587   1.083       .  S
C1578      C1583   1.484       .  S
C1578      C1579   1.409   1_455  A
C1579      C1580   1.396       .  A
C1579      O1584   1.372       .  S
C1580      C1581   1.406   1_545  A
C1580      H1585   1.083       .  S
C1581      C1582   1.411       .  A
C1582      O1586   1.372       .  S
C1583      C1588   1.409   1_545  A
C1583      C1592   1.405       .  A
O1584      H1600   0.992   1_655  S
O1586      H1597   0.991       .  S
C1588      C1589   1.394       .  A
C1588      O1593   1.372       .  S
C1589      C1590   1.404   1_565  A
C1589      H1594   1.083       .  S
C1590      C1591   1.412       .  A
C1591      C1592   1.400       .  A
C1591      O1595   1.372       .  S
C1592      H1596   1.083       .  S
O1593      H1598   0.992       .  S
O1595      H1599   0.990       .  S
C1601      C1602   1.401       .  A
C1601      C1606   1.400       .  A
C1601      H1611   1.083       .  S
C1602      C1607   1.477       .  S
C1602      C1603   1.408       .  A
C1603      C1604   1.396       .  A
C1603      O1608   1.372       .  S
C1604      C1605   1.404       .  A
C1604      H1609   1.083       .  S
C1605      C1606   1.412       .  A
C1606      O1610   1.371       .  S
C1607      C1612   1.407       .  A
C1607      C1616   1.399       .  A
O1608      H1624   0.993       .  S
O1610      H1621   0.991       .  S
C1612      C1613   1.401       .  A
C1612      O1617   1.372       .  S
C1613      C1614   1.406       .  A
C1613      H1618   1.083       .  S
C1614      C1615   1.412       .  A
C1615      C1616   1.395       .  A
C1615      O1619   1.372       .  S
C1616      H1620   1.084       .  S
O1617      H1622   0.991       .  S
O1619      H1623   0.991       .  S
C1625      C1626   1.403       .  A
C1625      C1630   1.399       .  A
C1625      H1635   1.084       .  S
C1626      C1631   1.473       .  S
C1626      C1627   1.402       .  A
C1627      C1628   1.399       .  A
C1627      O1632   1.372       .  S
C1628      C1629   1.407       .  A
C1628      H1633   1.083       .  S
C1629      C1630   1.410       .  A
C1630      O1634   1.372       .  S
C1631      C1636   1.407       .  A
C1631      C1640   1.400       .  A
O1632      H1648   0.988       .  S
O1634      H1645   0.989       .  S
C1636      C1637   1.402       .  A
C1636      O1641   1.371       .  S
C1637      C1638   1.403       .  A
C1637      H1642   1.084       .  S
C1638      C1639   1.409       .  A
C1639      C1640   1.395       .  A
C1639      O1643   1.372       .  S
C1640      H1644   1.084       .  S
O1641      H1646   0.992       .  S
O1643      H1647   0.993       .  S
