geometry optimzed in LAMMPS
_audit_creation_date              2020-11-30 
_audit_creation_method            'lammps2cif' 
_symmetry_space_group_name_H-M    'P1' 
_symmetry_Int_Tables_number       1 
_symmetry_cell_setting            triclinic 
loop_ 
_symmetry_equiv_pos_as_xyz 
  x,y,z 
_cell_length_a                    33.25444235392853 
_cell_length_b                    33.19749300121443 
_cell_length_c                    33.094945044016285 
_cell_angle_alpha                 89.9671332310341 
_cell_angle_beta                  89.99661262381449 
_cell_angle_gamma                 90.01624748380158 
loop_ 
_atom_site_label 
_atom_site_type_symbol 
_atom_site_fract_x 
_atom_site_fract_y 
_atom_site_fract_z 
_atom_site_charge 
C1          C  0.99113051  0.27210429  0.21883267     0.02440
C2          C  0.00866171  0.29677309  0.24789560    -0.13710
C3          C  0.01644739  0.28257299  0.28632380    -0.00060
C4          C  0.01180366  0.24226165  0.29538867    -0.12230
C5          C  0.99280966  0.21635423  0.26836694     0.02430
C6          C  0.98208798  0.23112210  0.22912744    -0.11650
H7          H  0.01309031  0.32857909  0.24156474     0.08030
H8          H  0.01883109  0.23205391  0.32577984     0.05560
H9          H  0.96688217  0.21173862  0.20775052     0.05400
O10         O  0.01130107  0.39432101  0.44032689    -0.87180
O11         O  0.99402085  0.61992681  0.43480771    -0.87340
O12         O  0.94123543  0.50295014  0.38533387    -0.89010
O13         O  0.07774574  0.50886034  0.39381046    -0.87770
O14         O  0.12182801  0.50889071  0.44714452    -0.87360
O15         O  0.89108395  0.50291996  0.43309803    -0.88730
O16         O  0.00317580  0.56960253  0.38776774    -0.87210
O17         O  0.01353762  0.44198216  0.38986120    -0.86790
Zr18       Zr  0.00717451  0.50662010  0.42160266     2.84310
O19         O  0.04368427  0.55019212  0.46354418    -1.08770
O20         O  0.96465133  0.46533526  0.46033976    -1.09500
C21         C  0.01486917  0.40570428  0.40337033     1.05930
C22         C  0.99561241  0.60593536  0.39845394     1.05870
C23         C  0.90357489  0.50228335  0.39627894     1.08860
C24         C  0.11395827  0.50878645  0.40919651     1.06640
H25         H  0.94558044  0.56234047  0.44232925     0.32190
O26         O  0.96320507  0.54718015  0.45981259    -1.29720
H27         H  0.06437393  0.45128850  0.45029028     0.31870
O28         O  0.04559713  0.46750436  0.46543927    -1.31400
O29         O  0.98946938  0.62348039  0.56666545    -0.87170
O30         O  0.99940914  0.39621509  0.56940582    -0.88670
O31         O  0.88565158  0.56897451  0.50013977    -0.87250
O32         O  0.11468482  0.57418152  0.50469126    -0.87300
O33         O  0.11869092  0.44753214  0.51030052    -0.87010
O34         O  0.88716606  0.44284272  0.50027603    -0.86810
O35         O  0.92835870  0.50796133  0.61401780    -0.87180
O36         O  0.06610931  0.51099236  0.62045509    -0.86650
O37         O  0.88353560  0.50801677  0.56120799    -0.87710
O38         O  0.11511252  0.51177689  0.57160605    -0.86870
O39         O  0.93087858  0.62104566  0.50241471    -0.87270
O40         O  0.93524513  0.39320672  0.50127644    -0.86990
O41         O  0.07266756  0.39593909  0.50897928    -0.86640
O42         O  0.06761132  0.62451438  0.50111527    -0.87050
O43         O  0.98707161  0.57361654  0.61483606    -0.87340
O44         O  0.99699415  0.44498924  0.61857267    -0.88680
Zr45       Zr  0.00000109  0.59087770  0.50184985     2.83100
Zr46       Zr  0.00360390  0.42644348  0.50442218     2.83500
Zr47       Zr  0.92225360  0.50611107  0.49926963     2.84090
Zr48       Zr  0.08155781  0.51025209  0.50754289     2.83360
Zr49       Zr  0.99853303  0.50915147  0.58536815     2.84220
O50         O  0.04129059  0.46834988  0.54708133    -1.09250
O51         O  0.95994978  0.54800516  0.54098047    -1.08750
C52         C  0.98465853  0.61038449  0.60308563     1.05900
C53         C  0.99672162  0.40835908  0.60612739     1.08520
C54         C  0.89434932  0.60671330  0.50136901     1.06080
C55         C  0.10461998  0.61140854  0.50230664     1.06440
C56         C  0.10940125  0.40991174  0.51008785     1.06020
C57         C  0.89791934  0.40574850  0.50075910     1.05570
C58         C  0.89193872  0.50845707  0.59914924     1.06000
C59         C  0.10366910  0.51129992  0.60858022     1.05510
H60         H  0.94297681  0.45040503  0.55904427     0.32190
O61         O  0.96075920  0.46695848  0.54303141    -1.30350
H62         H  0.05523411  0.56913316  0.56353294     0.32210
O63         O  0.03953683  0.55174164  0.54624987    -1.31740
C64         C  0.98661088  0.73442654  0.78459164     0.02440
C65         C  0.95428230  0.71620594  0.76468517    -0.13710
C66         C  0.94801103  0.72417598  0.72395056    -0.00060
C67         C  0.96297043  0.75995822  0.70794683    -0.12230
C68         C  0.99138964  0.78263779  0.72905039     0.02430
C69         C  0.00509644  0.76880473  0.76717329    -0.11650
H70         H  0.94141970  0.68882677  0.77721346     0.08030
H71         H  0.95740636  0.76731226  0.67653829     0.05560
H72         H  0.02996751  0.78358511  0.78218545     0.05400
C73         C  0.99262860  0.26682984  0.78527300     0.02440
C74         C  0.98772777  0.29366618  0.75355769    -0.13710
C75         C  0.97808074  0.28051737  0.71523807    -0.00060
C76         C  0.97399350  0.24009735  0.70703622    -0.12230
C77         C  0.98655579  0.21164349  0.73523384     0.02430
C78         C  0.99496452  0.22461159  0.77591574    -0.11650
H79         H  0.99068919  0.32581004  0.75904739     0.08030
H80         H  0.96654902  0.23095102  0.67641710     0.05560
H81         H  0.00279321  0.20294809  0.79903925     0.05400
C82         C  0.97581180  0.73183273  0.21330100     0.02440
C83         C  0.95232401  0.70341049  0.23356452    -0.13710
C84         C  0.94642123  0.70722502  0.27466418    -0.00060
C85         C  0.95463916  0.74361039  0.29345335    -0.12230
C86         C  0.96973124  0.77672497  0.27228138     0.02430
C87         C  0.98380108  0.76974340  0.23209056    -0.11650
H88         H  0.94694717  0.67417576  0.21982824     0.08030
H89         H  0.95280593  0.74496941  0.32614996     0.05560
H90         H  0.00118455  0.79240859  0.21636824     0.05400
O91         O  0.99727545  0.11301024  0.42999253    -0.87180
O92         O  0.00293573  0.88629396  0.43022422    -0.87340
O93         O  0.06933657  0.99931499  0.38556513    -0.89010
O94         O  0.94205767  0.99788930  0.38213450    -0.87770
O95         O  0.89076513  0.99697368  0.42865840    -0.87360
O96         O  0.11880925  0.99870628  0.43399556    -0.88730
O97         O  0.00207198  0.93658848  0.38261958    -0.87210
O98         O  0.00177762  0.06239841  0.38298796    -0.86790
Zr99       Zr  0.00479062  0.99943526  0.41903136     2.84310
O100        O  0.96369915  0.95851664  0.45838525    -1.08770
O101        O  0.04433645  0.04116794  0.45962007    -1.09500
C102        C  0.99837688  0.09967644  0.39280071     1.05930
C103        C  0.00149145  0.89931758  0.39307440     1.05870
C104        C  0.10637978  0.99840944  0.39665100     1.08860
C105        C  0.90460106  0.99702118  0.39173309     1.06640
H106        H  0.06291135  0.94152553  0.44276938     0.32190
O107        O  0.04578234  0.95827860  0.45928999    -1.29720
H108        H  0.94524550  0.05565038  0.44096658     0.31870
O109        O  0.96211316  0.03945201  0.45827248    -1.31400
O110        O  0.00539398  0.88482619  0.56666078    -0.87170
O111        O  0.00088338  0.11279614  0.56878119    -0.88670
O112        O  0.11741938  0.93673487  0.51043639    -0.87250
O113        O  0.88985515  0.93331311  0.49179914    -0.87300
O114        O  0.88820682  0.06164648  0.49905814    -0.87010
O115        O  0.11501944  0.06576382  0.50117530    -0.86810
O116        O  0.06304976  0.99770372  0.61688568    -0.87180
O117        O  0.93762134  0.99997168  0.61424383    -0.86650
O118        O  0.11483563  0.00019102  0.57109377    -0.87710
O119        O  0.88786241  0.99894855  0.56633470    -0.86870
O120        O  0.06892426  0.88740158  0.50682785    -0.87270
O121        O  0.06549140  0.11417364  0.49759452    -0.86990
O122        O  0.93652764  0.11129102  0.50198259    -0.86640
O123        O  0.93917977  0.88457034  0.49181216    -0.87050
O124        O  0.00487074  0.93553684  0.61362660    -0.87340
O125        O  0.99976927  0.06180801  0.61567658    -0.88680
Zr126      Zr  0.00363123  0.91742765  0.49885700     2.83100
Zr127      Zr  0.00159370  0.08124422  0.49924275     2.83500
Zr128      Zr  0.08464115  0.00041653  0.50123362     2.84090
Zr129      Zr  0.92109864  0.99788757  0.49811086     2.83360
Zr130      Zr  0.00102851  0.99919569  0.57926339     2.84220
O131        O  0.96056135  0.03968874  0.53886167    -1.09250
O132        O  0.04254214  0.95943238  0.53965669    -1.08750
C133        C  0.00655731  0.89818531  0.60363866     1.05900
C134        C  0.00011007  0.09922947  0.60594409     1.08520
C135        C  0.10512165  0.90006894  0.51228868     1.06080
C136        C  0.90257864  0.89693051  0.48889647     1.06440
C137        C  0.90016646  0.09831607  0.50144979     1.06020
C138        C  0.10218076  0.10222303  0.49937074     1.05570
C139        C  0.10061022  0.99819769  0.60786729     1.06000
C140        C  0.90046188  0.00009864  0.60368822     1.05510
H141        H  0.05849197  0.05777237  0.55835940     0.32190
O142        O  0.04247085  0.04105400  0.54073488    -1.30350
H143        H  0.94423540  0.93968648  0.55631713     0.32210
O144        O  0.96091627  0.95670360  0.53957373    -1.31740
C145        C  0.23563669  0.29450250  0.51544411     0.02440
C146        C  0.20644627  0.26470344  0.51802750    -0.13710
C147        C  0.21684891  0.22465925  0.51800631    -0.00060
C148        C  0.25653601  0.21277789  0.51687052    -0.12230
C149        C  0.28741724  0.24096067  0.51676706     0.02430
C150        C  0.27728439  0.28297868  0.51498760    -0.11650
H151        H  0.17475889  0.27272465  0.51867386     0.08030
H152        H  0.26346540  0.18080255  0.51601715     0.05560
H153        H  0.30065510  0.30561546  0.51363159     0.05400
C154        C  0.76947447  0.29179829  0.49756942     0.02440
C155        C  0.79719189  0.26069192  0.49450288    -0.13710
C156        C  0.78514999  0.22112406  0.49642332    -0.00060
C157        C  0.74544565  0.21087762  0.50154973    -0.12230
C158        C  0.71581488  0.24020707  0.50348759     0.02430
C159        C  0.72753325  0.28191780  0.50183846    -0.11650
H160        H  0.82905636  0.26729452  0.49133923     0.08030
H161        H  0.73748323  0.17918721  0.50377074     0.05560
H162        H  0.70516257  0.30548571  0.50381050     0.05400
C163        C  0.71546400  0.77479567  0.48992874     0.02440
C164        C  0.72999007  0.73669545  0.50349667    -0.13710
C165        C  0.76788159  0.72256590  0.48916363    -0.00060
C166        C  0.79028573  0.74699747  0.46323104    -0.12230
C167        C  0.77818480  0.78617839  0.45549602     0.02430
C168        C  0.73927269  0.79793251  0.46411809    -0.11650
H169        H  0.71322614  0.71947487  0.52558531     0.08030
H170        H  0.82097208  0.73851579  0.45584256     0.05560
H171        H  0.73055353  0.82876527  0.45742568     0.05400
C172        C  0.23343139  0.72308920  0.52224188     0.02440
C173        C  0.21382410  0.74345613  0.55351607    -0.13710
C174        C  0.22042857  0.78449986  0.55842221    -0.00060
C175        C  0.25611157  0.80111190  0.54418494    -0.12230
C176        C  0.27979313  0.78027904  0.51634606     0.02430
C177        C  0.26741618  0.74130198  0.50351004    -0.11650
H178        H  0.18611780  0.73092303  0.56555193     0.08030
H179        H  0.26230646  0.83274878  0.54956339     0.05560
H180        H  0.28293618  0.72620998  0.47908581     0.05400
C181        C  0.73573600  0.99724210  0.21254506     0.02440
C182        C  0.77732525  0.99431452  0.22381988    -0.13710
C183        C  0.78796517  0.99651884  0.26581242    -0.00060
C184        C  0.75770906  0.00224425  0.29421886    -0.12230
C185        C  0.71813561  0.00523116  0.28247340     0.02430
C186        C  0.70704719  0.00263011  0.24257212    -0.11650
H187        H  0.80026051  0.98996440  0.20105215     0.08030
H188        H  0.76492599  0.00366255  0.32621539     0.05560
H189        H  0.67532342  0.00446550  0.23487572     0.05400
O190        O  0.38937883  0.07775941  0.51030946    -0.87180
O191        O  0.61514528  0.07582524  0.50746434    -0.87340
O192        O  0.50324232  0.11922684  0.57207972    -0.89010
O193        O  0.50082454  0.12150741  0.44404109    -0.87770
O194        O  0.49882159  0.07475720  0.39313238    -0.87360
O195        O  0.50500950  0.07172825  0.62259747    -0.88730
O196        O  0.56447724  0.12273458  0.50640539    -0.87210
O197        O  0.44080954  0.12385424  0.50923806    -0.86790
Zr198      Zr  0.50234658  0.08588305  0.50788122     2.84310
O199        O  0.54268229  0.04694687  0.46565626    -1.08770
O200        O  0.46163660  0.04657140  0.55001363    -1.09500
C201        C  0.40336541  0.11459726  0.51001854     1.05930
C202        C  0.60174863  0.11288030  0.50663259     1.05870
C203        C  0.50455448  0.10874380  0.60938680     1.08860
C204        C  0.49905586  0.11170260  0.40644471     1.06640
H205        H  0.56042868  0.06238177  0.56593158     0.32190
O206        O  0.54336957  0.04584469  0.54912793    -1.29720
H207        H  0.44413449  0.06470048  0.45028099     0.31870
O208        O  0.46079889  0.04733174  0.46661379    -1.31400
O209        O  0.61521474  0.93841047  0.50740291    -0.87170
O210        O  0.38607851  0.94096773  0.50425212    -0.88670
O211        O  0.56713039  0.99599195  0.62105553    -0.87250
O212        O  0.56570217  0.00651053  0.39281348    -0.87300
O213        O  0.43702153  0.00499959  0.39396432    -0.87010
O214        O  0.43836687  0.99912901  0.62263335    -0.86810
O215        O  0.50275487  0.88829997  0.56677738    -0.87180
O216        O  0.49966884  0.89024316  0.44316604    -0.86650
O217        O  0.50376508  0.93375924  0.61897143    -0.87710
O218        O  0.49876500  0.93757406  0.39268171    -0.86870
O219        O  0.61518139  0.99916112  0.57114277    -0.87270
O220        O  0.38903541  0.00277127  0.57384506    -0.86990
O221        O  0.38815336  0.00678844  0.44328983    -0.86640
O222        O  0.61511175  0.00748183  0.44170876    -0.87050
O223        O  0.56418045  0.89192030  0.50689970    -0.87340
O224        O  0.43608004  0.89342611  0.50289669    -0.88680
Zr225      Zr  0.58347187  0.00665977  0.50660886     2.83100
Zr226      Zr  0.41978041  0.00813150  0.50831986     2.83500
Zr227      Zr  0.50252496  0.00406675  0.58959869     2.84090
Zr228      Zr  0.50120949  0.00656570  0.42506963     2.83360
Zr229      Zr  0.50066908  0.92674438  0.50555772     2.84220
O230        O  0.45966618  0.96754656  0.46623410    -1.09250
O231        O  0.54226561  0.96554450  0.54646539    -1.08750
C232        C  0.60161410  0.90156657  0.50787019     1.05900
C233        C  0.39881878  0.90386290  0.50306619     1.08520
C234        C  0.60348188  0.99444652  0.60787258     1.06080
C235        C  0.60234584  0.00690058  0.40510581     1.06440
C236        C  0.40057785  0.00499480  0.40654442     1.06020
C237        C  0.40167500  0.99837764  0.61034689     1.05570
C238        C  0.50405693  0.89711182  0.60443073     1.06000
C239        C  0.49871479  0.90038007  0.40583074     1.05510
H240        H  0.44414758  0.94757546  0.56378494     0.32190
O241        O  0.46048376  0.96562803  0.54784523    -1.30350
H242        H  0.55878439  0.94881708  0.44838699     0.32210
O243        O  0.54251931  0.96611974  0.46517374    -1.31740
C244        C  0.26745172  0.97654123  0.78708029     0.02440
C245        C  0.22708930  0.98524124  0.77487326    -0.13710
C246        C  0.21365598  0.97264729  0.73575903    -0.00060
C247        C  0.24069427  0.95336499  0.71009537    -0.12230
C248        C  0.28102065  0.95115858  0.72003870     0.02430
C249        C  0.29360014  0.95931377  0.75909074    -0.11650
H250        H  0.20707614  0.00150775  0.79481842     0.08030
H251        H  0.23197780  0.94699631  0.67910194     0.05560
H252        H  0.32542465  0.95726651  0.76619486     0.05400
C253        C  0.72997092  0.99396610  0.77986971     0.02440
C254        C  0.76976863  0.00426508  0.76727621    -0.13710
C255        C  0.78665476  0.98463153  0.73277316    -0.00060
C256        C  0.76377085  0.95577660  0.71241770    -0.12230
C257        C  0.72298575  0.95231523  0.72036816     0.02430
C258        C  0.70766694  0.96726615  0.75635791    -0.11650
H259        H  0.78656540  0.02729024  0.78310577     0.08030
H260        H  0.77493562  0.94347171  0.68415128     0.05560
H261        H  0.67594752  0.96325129  0.76298488     0.05400
C262        C  0.26915792  0.99548814  0.21591763     0.02440
C263        C  0.22712558  0.99524282  0.22562826    -0.13710
C264        C  0.21531661  0.98888322  0.26681274    -0.00060
C265        C  0.24480676  0.98164955  0.29555754    -0.12230
C266        C  0.28477787  0.98377613  0.28584460     0.02430
C267        C  0.29707153  0.99084336  0.24681772    -0.11650
H268        H  0.20479424  0.00028388  0.20239917     0.08030
H269        H  0.23670316  0.97736725  0.32711046     0.05560
H270        H  0.32904085  0.99342500  0.24050770     0.05400
O271        O  0.57271658  0.00227465  0.11231393    -0.87180
O272        O  0.56686658  0.01044822  0.88412425    -0.87340
O273        O  0.61580001  0.94252563  0.99661361    -0.89010
O274        O  0.61528450  0.06915838  0.00034672    -0.87770
O275        O  0.56858797  0.11993151  0.00159466    -0.87360
O276        O  0.56885642  0.89196936  0.99475058    -0.88730
O277        O  0.61434036  0.00985431  0.93429332    -0.87210
O278        O  0.61818793  0.00364469  0.06004303    -0.86790
Zr279      Zr  0.58017891  0.00598144  0.99813262     2.84310
O280        O  0.54009658  0.04838361  0.95862165    -1.08770
O281        O  0.54167952  0.96519606  0.04022176    -1.09500
C282        C  0.60927131  0.00227072  0.09776648     1.05930
C283        C  0.60409806  0.01031017  0.89690614     1.05870
C284        C  0.60591230  0.90510198  0.99499062     1.08860
C285        C  0.60541952  0.10652843  0.00148613     1.06640
H286        H  0.55645460  0.94896972  0.94005915     0.32190
O287        O  0.53983266  0.96538829  0.95740568    -1.29720
H288        H  0.55983904  0.06188615  0.05728961     0.31870
O289        O  0.54175574  0.04590800  0.04108644    -1.31400
O290        O  0.42889025  0.00548429  0.88859694    -0.87170
O291        O  0.43485735  0.00484149  0.11681852    -0.88670
O292        O  0.49105290  0.89480518  0.93641256    -0.87250
O293        O  0.49498782  0.12084883  0.93783294    -0.87300
O294        O  0.50621745  0.11846171  0.06795075    -0.87010
O295        O  0.50954890  0.89138383  0.06416022    -0.86810
O296        O  0.38499687  0.94279885  0.00146702    -0.87180
O297        O  0.38591924  0.06940729  0.00365973    -0.86650
O298        O  0.43208761  0.89231904  0.99929141    -0.87710
O299        O  0.43270056  0.12021520  0.00347312    -0.86870
O300        O  0.49744717  0.94216219  0.88657207    -0.87270
O301        O  0.50903599  0.93994333  0.11387749    -0.86990
O302        O  0.50861054  0.06897248  0.11664403    -0.86640
O303        O  0.49282111  0.07344628  0.88718050    -0.87050
O304        O  0.38345904  0.00424019  0.94091863    -0.87340
O305        O  0.38677689  0.00552302  0.06698419    -0.88680
Zr306      Zr  0.49885309  0.00774798  0.91794702     2.83100
Zr307      Zr  0.50273282  0.00503618  0.08333985     2.83500
Zr308      Zr  0.50062485  0.92459682  0.00030629     2.84090
Zr309      Zr  0.50058036  0.08784186  0.00218561     2.83360
Zr310      Zr  0.42106147  0.00591417  0.00328204     2.84220
O311        O  0.46111407  0.04691996  0.04431485    -1.09250
O312        O  0.46032842  0.96661802  0.96065473    -1.08750
C313        C  0.39232633  0.00406223  0.90312175     1.05900
C314        C  0.39764522  0.00487003  0.10413302     1.08520
C315        C  0.49320338  0.90575823  0.89957162     1.06080
C316        C  0.49133762  0.10981915  0.90073872     1.06440
C317        C  0.51000058  0.10578570  0.10455760     1.06020
C318        C  0.51243618  0.90363749  0.10088595     1.05570
C319        C  0.39504894  0.90550124  0.99922364     1.06000
C320        C  0.39583041  0.10683337  0.00338327     1.05510
H321        H  0.44457242  0.94681252  0.06041069     0.32190
O322        O  0.46102433  0.96394448  0.04356469    -1.30350
H323        H  0.44143814  0.06360325  0.94588050     0.32210
O324        O  0.45957443  0.04716297  0.96157792    -1.31740
C325        C  0.51821943  0.23418377  0.28670039     0.02440
C326        C  0.53801177  0.20839653  0.26000251    -0.13710
C327        C  0.55085741  0.22191942  0.22251281    -0.00060
C328        C  0.55086135  0.26273498  0.21400843    -0.12230
C329        C  0.52923949  0.28951268  0.23813755     0.02430
C330        C  0.51192683  0.27513573  0.27494026    -0.11650
H331        H  0.53878967  0.17634216  0.26641258     0.08030
H332        H  0.56100442  0.27224614  0.18429152     0.05560
H333        H  0.49375456  0.29492241  0.29341529     0.05400
C334        C  0.51435476  0.77385454  0.28966646     0.02440
C335        C  0.53444820  0.79904693  0.26269540    -0.13710
C336        C  0.53921827  0.78802031  0.22286796    -0.00060
C337        C  0.53268382  0.74879801  0.21090162    -0.12230
C338        C  0.50975305  0.72298714  0.23499772     0.02430
C339        C  0.49978455  0.73571534  0.27530762    -0.11650
H340        H  0.54076127  0.83006484  0.27103634     0.08030
H341        H  0.53841247  0.74109817  0.17952674     0.05560
H342        H  0.48090171  0.71713723  0.29433715     0.05400
C343        C  0.50505080  0.76530894  0.71284781     0.02440
C344        C  0.50414880  0.79358715  0.74354622    -0.13710
C345        C  0.48563748  0.78452342  0.77971742    -0.00060
C346        C  0.47551365  0.74492997  0.78867577    -0.12230
C347        C  0.48914676  0.71386851  0.76406379     0.02430
C348        C  0.50109153  0.72365700  0.72356264    -0.11650
H349        H  0.51387181  0.82418964  0.73743304     0.08030
H350        H  0.46266335  0.73779573  0.81797571     0.05560
H351        H  0.50698434  0.70020568  0.70167100     0.05400
C352        C  0.48892917  0.23550406  0.72385015     0.02440
C353        C  0.46413411  0.21385937  0.74992754    -0.13710
C354        C  0.45213250  0.23004726  0.78677347    -0.00060
C355        C  0.45811581  0.27085132  0.79377635    -0.12230
C356        C  0.48746780  0.29146478  0.77174585     0.02430
C357        C  0.50309657  0.27398739  0.73587351    -0.11650
H358        H  0.45905075  0.18223207  0.74363335     0.08030
H359        H  0.44784557  0.28336062  0.82229144     0.05560
H360        H  0.52592589  0.28940715  0.71841943     0.05400
O361        O  0.99073724  0.43621192  0.11451693    -0.87180
O362        O  0.00211556  0.43189285  0.88700267    -0.87340
O363        O  0.93864458  0.38694682  0.00215496    -0.89010
O364        O  0.06538874  0.39015045  0.00284045    -0.87770
O365        O  0.11505358  0.43817697  0.00315751    -0.87360
O366        O  0.88712953  0.43288394  0.00160158    -0.88730
O367        O  0.00492029  0.38579466  0.93863221    -0.87210
O368        O  0.99757407  0.38868572  0.06470336    -0.86790
Zr369      Zr  0.00119567  0.42351735  0.00113008     2.84310
O370        O  0.04262824  0.46371374  0.96148337    -1.08770
O371        O  0.95799270  0.46268521  0.04042260    -1.09500
C372        C  0.99229372  0.39898380  0.10172188     1.05930
C373        C  0.00390872  0.39510390  0.90091625     1.05870
C374        C  0.90112923  0.39619151  0.00250434     1.08860
C375        C  0.10251649  0.40089978  0.00297824     1.06640
H376        H  0.94431914  0.44314657  0.94093621     0.32190
O377        O  0.96028999  0.46084418  0.95763844    -1.29720
H378        H  0.05619027  0.44784941  0.06062336     0.31870
O379        O  0.04004140  0.46462562  0.04314899    -1.31400
O380        O  0.00376967  0.56880047  0.88381477    -0.87170
O381        O  0.99938596  0.57389669  0.11229422    -0.88670
O382        O  0.88913795  0.50316303  0.93097293    -0.87250
O383        O  0.11510998  0.49986812  0.93929809    -0.87300
O384        O  0.11032180  0.50757351  0.06911003    -0.87010
O385        O  0.88401967  0.50791811  0.06051535    -0.86810
O386        O  0.93410761  0.61663732  0.99674079    -0.87180
O387        O  0.05934145  0.62160845  0.99730133    -0.86650
O388        O  0.88421649  0.56898098  0.99441539    -0.87710
O389        O  0.11117698  0.57614341  0.00097535    -0.86870
O390        O  0.93951819  0.50546547  0.88321416    -0.87270
O391        O  0.93088942  0.51114503  0.11162717    -0.86990
O392        O  0.05964132  0.50540089  0.11653373    -0.86640
O393        O  0.06800449  0.49563037  0.88845134    -0.87050
O394        O  0.99954115  0.61602693  0.93411274    -0.87340
O395        O  0.99926804  0.61959723  0.06032723    -0.88680
Zr396      Zr  0.00245894  0.50121370  0.91760039     2.83100
Zr397      Zr  0.99654647  0.50458198  0.08205466     2.83500
Zr398      Zr  0.91804659  0.50152519  0.99721163     2.84090
Zr399      Zr  0.08146798  0.50582757  0.00279398     2.83360
Zr400      Zr  0.99839905  0.58267150  0.99801096     2.84220
O401        O  0.03828885  0.54521267  0.04189456    -1.09250
O402        O  0.95961139  0.54149668  0.95659019    -1.08750
C403        C  0.00125178  0.60579776  0.89683724     1.05900
C404        C  0.00009611  0.61059473  0.09804307     1.08520
C405        C  0.90267429  0.50609159  0.89470749     1.06080
C406        C  0.10404931  0.49518456  0.90240637     1.06440
C407        C  0.09662683  0.50700210  0.10544627     1.06020
C408        C  0.89485032  0.51230026  0.09750895     1.05570
C409        C  0.89686868  0.60618098  0.99527700     1.06000
C410        C  0.09688112  0.61285401  0.99859179     1.05510
H411        H  0.94019021  0.56161741  0.05393134     0.32190
O412        O  0.95695512  0.54352805  0.03854538    -1.30350
H413        H  0.05844937  0.56040718  0.94196322     0.32210
O414        O  0.04155601  0.54358956  0.95864109    -1.31740
C415        C  0.77510009  0.51970618  0.28054724     0.02440
C416        C  0.79662045  0.53782272  0.24930036    -0.13710
C417        C  0.77829270  0.54822459  0.21321891    -0.00060
C418        C  0.73742808  0.54310523  0.20853762    -0.12230
C419        C  0.71584484  0.51935319  0.23564397     0.02430
C420        C  0.73433475  0.50794647  0.27307235    -0.11650
H421        H  0.82894864  0.54131802  0.25222464     0.08030
H422        H  0.72420600  0.55101158  0.17955638     0.05560
H423        H  0.71786988  0.49049133  0.29519060     0.05400
C424        C  0.23807860  0.49666111  0.29299222     0.02440
C425        C  0.20792276  0.49655699  0.26394149    -0.13710
C426        C  0.21699994  0.49224132  0.22362834    -0.00060
C427        C  0.25617044  0.48819401  0.21079340    -0.12230
C428        C  0.28790265  0.48828465  0.23813265     0.02430
C429        C  0.27920985  0.49306391  0.28032676    -0.11650
H430        H  0.17667568  0.50030023  0.27279695     0.08030
H431        H  0.26198739  0.48572488  0.17858228     0.05560
H432        H  0.30328180  0.49356134  0.30231073     0.05400
C433        C  0.23189677  0.48859575  0.72282660     0.02440
C434        C  0.20732867  0.47167007  0.75229932    -0.13710
C435        C  0.22284602  0.45913536  0.78894929    -0.00060
C436        C  0.26363304  0.45999672  0.79595328    -0.12230
C437        C  0.28934403  0.47999502  0.76951249     0.02430
C438        C  0.27360347  0.49482300  0.73194587    -0.11650
H439        H  0.17498830  0.47096203  0.74770424     0.08030
H440        H  0.27429460  0.45095384  0.82565208     0.05560
H441        H  0.29293462  0.51041973  0.71079779     0.05400
C442        C  0.76562619  0.52264045  0.71522451     0.02440
C443        C  0.79318847  0.53632320  0.74370775    -0.13710
C444        C  0.78162116  0.54360821  0.78308116    -0.00060
C445        C  0.74168409  0.54214306  0.79414295    -0.12230
C446        C  0.71262954  0.52783096  0.76754377     0.02430
C447        C  0.72447303  0.51724505  0.72720866    -0.11650
H448        H  0.82499983  0.53715382  0.73622634     0.08030
H449        H  0.73407118  0.54720436  0.82567440     0.05560
H450        H  0.70279171  0.50476921  0.70629689     0.05400
C451        C  0.21850885  0.27513195  0.02436144     0.02440
C452        C  0.23280238  0.23752056  0.00928025    -0.13710
C453        C  0.27117493  0.22321990  0.02202046    -0.00060
C454        C  0.29517686  0.24795424  0.04595992    -0.12230
C455        C  0.28302205  0.28679448  0.05538274     0.02430
C456        C  0.24291379  0.29740484  0.05044048    -0.11650
H457        H  0.21513749  0.22048359  0.98778860     0.08030
H458        H  0.32629706  0.23941475  0.05082784     0.05560
H459        H  0.23376308  0.32764943  0.05891278     0.05400
O460        O  0.50875700  0.39009972  0.07435491    -0.87180
O461        O  0.49332268  0.61701546  0.07239543    -0.87340
O462        O  0.56502140  0.50541805  0.11971330    -0.89010
O463        O  0.44013956  0.50035605  0.12071792    -0.87770
O464        O  0.38940310  0.49626995  0.07382630    -0.87360
O465        O  0.61594853  0.50383097  0.07291345    -0.88730
O466        O  0.49600853  0.56676497  0.11955149    -0.87210
O467        O  0.50549701  0.44126846  0.12089144    -0.86790
Zr468      Zr  0.50216528  0.50343749  0.08399378     2.84310
O469        O  0.45901892  0.54165312  0.04398220    -1.08770
O470        O  0.54529758  0.46392857  0.04477398    -1.09500
C471        C  0.50786867  0.40393567  0.11128748     1.05930
C472        C  0.49276718  0.60411449  0.10964885     1.05870
C473        C  0.60236701  0.50459720  0.10996509     1.08860
C474        C  0.40294471  0.49775011  0.11092306     1.06640
H475        H  0.55634844  0.56279015  0.06237176     0.32190
O476        O  0.54107244  0.54586578  0.04430625    -1.29720
H477        H  0.44790377  0.44290410  0.06266621     0.31870
O478        O  0.46332122  0.46004338  0.04491343    -1.31400
O479        O  0.49834393  0.61671465  0.93467024    -0.87170
O480        O  0.50758574  0.38905689  0.93624764    -0.88670
O481        O  0.61196123  0.57357598  0.00864739    -0.87250
O482        O  0.38428783  0.56027401  0.00537836    -0.87300
O483        O  0.39244442  0.43133877  0.00701487    -0.87010
O484        O  0.61963962  0.44367629  0.99935635    -0.86810
O485        O  0.56346210  0.50684530  0.88753746    -0.87180
O486        O  0.43993690  0.49931930  0.88766354    -0.86650
O487        O  0.61467943  0.50975627  0.93395881    -0.87710
O488        O  0.38892561  0.49673639  0.93430708    -0.86870
O489        O  0.56066448  0.62036894  0.01039635    -0.87270
O490        O  0.57256347  0.39280733  0.00229933    -0.86990
O491        O  0.44331044  0.38434034  0.00878413    -0.86640
O492        O  0.43086137  0.61185194  0.00494599    -0.87050
O493        O  0.49844237  0.56578887  0.88793569    -0.87340
O494        O  0.50598053  0.44038155  0.88990595    -0.88680
Zr495      Zr  0.49796752  0.58495945  0.00398449     2.83100
Zr496      Zr  0.50600658  0.42076572  0.00490868     2.83500
Zr497      Zr  0.58420125  0.50675584  0.00388736     2.84090
Zr498      Zr  0.42012302  0.49806389  0.00409794     2.83360
Zr499      Zr  0.50174708  0.50329496  0.92482515     2.84220
O500        O  0.46288599  0.45910936  0.96373596    -1.09250
O501        O  0.54146365  0.54643660  0.96363655    -1.08750
C502        C  0.49819806  0.60325606  0.89752249     1.05900
C503        C  0.50766305  0.40295097  0.89935349     1.08520
C504        C  0.59775695  0.60951810  0.01200360     1.06080
C505        C  0.39495295  0.59741622  0.00509954     1.06440
C506        C  0.40612680  0.39517345  0.00973275     1.06020
C507        C  0.60864697  0.40648850  0.99908452     1.05570
C508        C  0.60077339  0.50901980  0.89696190     1.06000
C509        C  0.40263043  0.49746193  0.89720748     1.05510
H510        H  0.56149282  0.44862593  0.94654241     0.32190
O511        O  0.54443735  0.46412635  0.96427048    -1.30350
H512        H  0.44131928  0.55762863  0.94665222     0.32210
O513        O  0.45861262  0.54196449  0.96403589    -1.31740
C514        C  0.72909745  0.78601451  0.01797559     0.02440
C515        C  0.76665324  0.77063480  0.00365000    -0.13710
C516        C  0.78073419  0.73264395  0.01827781    -0.00060
C517        C  0.75696504  0.71116722  0.04547684    -0.12230
C518        C  0.71756781  0.72289627  0.05234974     0.02430
C519        C  0.70562130  0.76186839  0.04323620    -0.11650
H520        H  0.78400743  0.78735553  0.98164385     0.08030
H521        H  0.76566498  0.68069624  0.05368280     0.05560
H522        H  0.67482814  0.77071151  0.04964130     0.05400
C523        C  0.26717757  0.78955165  0.98798282     0.02440
C524        C  0.22485133  0.78051067  0.99073924    -0.13710
C525        C  0.21193058  0.73912144  0.98932988    -0.00060
C526        C  0.24053222  0.70926698  0.98359679    -0.12230
C527        C  0.28069098  0.71853557  0.98296967     0.02430
C528        C  0.29410850  0.75762232  0.98536421    -0.11650
H529        H  0.20304176  0.80440357  0.99434429     0.08030
H530        H  0.23168556  0.67773687  0.98281618     0.05560
H531        H  0.32633008  0.76309485  0.98584844     0.05400
C532        C  0.73341811  0.21894217  0.98761989     0.02440
C533        C  0.77092269  0.23298121  0.00290414    -0.13710
C534        C  0.78374731  0.27270800  0.99307829    -0.00060
C535        C  0.75828176  0.29761360  0.97083139    -0.12230
C536        C  0.72020492  0.28469889  0.95989991     0.02430
C537        C  0.71020814  0.24434494  0.96344138    -0.11650
H538        H  0.78878323  0.21421731  0.02273403     0.08030
H539        H  0.76590571  0.32923807  0.96737133     0.05560
H540        H  0.68010498  0.23504632  0.95472045     0.05400
C541        C  0.63924046  0.37672485  0.99135854    -0.06810
C542        C  0.66280673  0.38146301  0.95655978    -0.17940
C543        C  0.68694628  0.35016557  0.94274665     0.10390
C544        C  0.68803958  0.31404633  0.96489478    -0.06740
C545        C  0.66450325  0.30971351  0.99997450    -0.17970
C546        C  0.64049387  0.34080952  0.01366516     0.10420
S547        S  0.71570142  0.35788128  0.89718508    -0.32940
S548        S  0.61376963  0.33361872  0.06068944    -0.32940
H549        H  0.61334468  0.37449794  0.07191999     0.28430
H550        H  0.71985035  0.31684673  0.88750528     0.28420
H551        H  0.66131065  0.40919179  0.93940550     0.19010
H552        H  0.66676010  0.28278453  0.01837809     0.19020
C553        C  0.36344014  0.62598741  0.00063553    -0.06810
C554        C  0.35499007  0.63826546  0.96120804    -0.17940
C555        C  0.32699970  0.66812196  0.95405212     0.10390
C556        C  0.30897880  0.68660540  0.98750674    -0.06740
C557        C  0.31704167  0.67405194  0.02702325    -0.17970
C558        C  0.34363835  0.64288910  0.03393330     0.10420
S559        S  0.31516174  0.68033582  0.90218836    -0.32940
S560        S  0.35097044  0.62648910  0.08526301    -0.32940
H561        H  0.35958517  0.58619531  0.07573600     0.28430
H562        H  0.30048695  0.71944849  0.90857124     0.28420
H563        H  0.37097378  0.62503712  0.93609266     0.19010
H564        H  0.30201737  0.68826578  0.05238574     0.19020
C565        C  0.62655039  0.64040426  0.02079800    -0.06810
C566        C  0.62554187  0.65770864  0.05948483    -0.17940
C567        C  0.65616409  0.68335753  0.07213028     0.10390
C568        C  0.68744509  0.69204461  0.04503539    -0.06740
C569        C  0.68767637  0.67509643  0.00606164    -0.17970
C570        C  0.65772690  0.64911198  0.99371201     0.10420
S571        S  0.65410248  0.70333109  0.12273745    -0.32940
S572        S  0.66123308  0.62852462  0.94321258    -0.32940
H573        H  0.62128427  0.61546626  0.93926527     0.28430
H574        H  0.69550605  0.71099680  0.12656585     0.28420
H575        H  0.60158274  0.65000912  0.08034440     0.19010
H576        H  0.71109819  0.68295405  0.98465258     0.19020
C577        C  0.31328095  0.31821248  0.04887856    -0.06810
C578        C  0.30777211  0.34256587  0.01444281    -0.17940
C579        C  0.33889654  0.36524916  0.99868247     0.10390
C580        C  0.37635513  0.36453316  0.01817142    -0.06740
C581        C  0.38245523  0.33992162  0.05206222    -0.17970
C582        C  0.35102248  0.31727566  0.06815116     0.10420
S583        S  0.32942822  0.39312784  0.95271188    -0.32940
S584        S  0.36061916  0.28784349  0.11298680    -0.32940
H585        H  0.32031621  0.28587623  0.12572803     0.28430
H586        H  0.36936759  0.39231338  0.93867459     0.28420
H587        H  0.27968692  0.34205874  0.99792506     0.19010
H588        H  0.41139928  0.33970063  0.06700237     0.19020
C589        C  0.67304406  0.52057006  0.78781616    -0.06810
C590        C  0.66663889  0.48240047  0.80527670    -0.17940
C591        C  0.64340700  0.47752127  0.84072140     0.10390
C592        C  0.62808246  0.51181682  0.86120674    -0.06740
C593        C  0.63164620  0.54935994  0.84195141    -0.17970
C594        C  0.65293448  0.55386188  0.80548797     0.10420
S595        S  0.63528128  0.42671525  0.85823746    -0.32940
S596        S  0.65717670  0.60391138  0.78477085    -0.32940
H597        H  0.66861614  0.59146042  0.74579467     0.28430
H598        H  0.60008011  0.43382734  0.88046105     0.28420
H599        H  0.68206684  0.45650020  0.79276705     0.19010
H600        H  0.61758314  0.57557047  0.85543979     0.19020
C601        C  0.32921007  0.48893128  0.78839096    -0.06810
C602        C  0.33282111  0.52587389  0.80888695    -0.17940
C603        C  0.35593689  0.52961337  0.84448791     0.10390
C604        C  0.37512241  0.49537654  0.86144321    -0.06740
C605        C  0.37467241  0.45954876  0.83882846    -0.17970
C606        C  0.35265178  0.45618167  0.80267021     0.10420
S607        S  0.35850497  0.57880728  0.86702348    -0.32940
S608        S  0.35064994  0.40744149  0.77877361    -0.32940
H609        H  0.33703033  0.42173124  0.74114588     0.28430
H610        H  0.39505267  0.57337920  0.88749518     0.28420
H611        H  0.31475758  0.55122156  0.79905501     0.19010
H612        H  0.39123293  0.43361739  0.84976084     0.19020
C613        C  0.37509973  0.49553094  0.14622703    -0.06810
C614        C  0.35730872  0.45836378  0.15550198    -0.17940
C615        C  0.33527729  0.45270074  0.19134707     0.10390
C616        C  0.32805690  0.48550978  0.21795471    -0.06740
C617        C  0.34852540  0.52171346  0.21031415    -0.17970
C618        C  0.37254728  0.52680297  0.17553551     0.10420
S619        S  0.31312361  0.40380740  0.19972309    -0.32940
S620        S  0.39799800  0.57462438  0.17042934    -0.32940
H621        H  0.40811172  0.57193729  0.12941858     0.28430
H622        H  0.30530534  0.40971686  0.24108768     0.28420
H623        H  0.36107086  0.43326690  0.13492346     0.19010
H624        H  0.34318300  0.54735381  0.22984404     0.19020
C625        C  0.63024390  0.50594348  0.14538468    -0.06810
C626        C  0.65485179  0.47285703  0.15477027    -0.17940
C627        C  0.67810621  0.47209259  0.19051255     0.10390
C628        C  0.67703240  0.50491091  0.21808004    -0.06740
C629        C  0.64860200  0.53541471  0.21074676    -0.17970
C630        C  0.62698058  0.53721929  0.17430953     0.10420
S631        S  0.71203371  0.43039879  0.19744549    -0.32940
S632        S  0.59914642  0.58275321  0.16447491    -0.32940
H633        H  0.60456028  0.58242339  0.12233922     0.28430
H634        H  0.71481112  0.43455778  0.23960768     0.28420
H635        H  0.65628116  0.44764187  0.13404233     0.19010
H636        H  0.64814005  0.56150258  0.23044136     0.19020
C637        C  0.86783330  0.64073797  0.99672574    -0.06810
C638        C  0.87422817  0.67020452  0.02666285    -0.17940
C639        C  0.84922399  0.70404550  0.03053602     0.10390
C640        C  0.81673886  0.70990631  0.00378537    -0.06740
C641        C  0.81132521  0.68149933  0.97250075    -0.17970
C642        C  0.83643856  0.64731369  0.96851040     0.10420
S643        S  0.85681211  0.73636661  0.07352008    -0.32940
S644        S  0.82594889  0.61316221  0.92743462    -0.32940
H645        H  0.86471271  0.59688117  0.92394386     0.28430
H646        H  0.83956457  0.77086947  0.05595750     0.28420
H647        H  0.89824668  0.66606763  0.04838226     0.19010
H648        H  0.78554807  0.68446349  0.95269300     0.19020
C649        C  0.87311654  0.36099380  0.00351643    -0.06810
C650        C  0.84338177  0.35834573  0.03346087    -0.17940
C651        C  0.81773167  0.32467939  0.03597525     0.10390
C652        C  0.82092112  0.29295242  0.00746191    -0.06740
C653        C  0.85293812  0.29397204  0.98002930    -0.17970
C654        C  0.87854582  0.32745084  0.97750190     0.10420
S655        S  0.77868100  0.32541915  0.07372706    -0.32940
S656        S  0.91528277  0.32681226  0.93772415    -0.32940
H657        H  0.91158773  0.36802642  0.92857638     0.28430
H658        H  0.77115006  0.28374094  0.07287313     0.28420
H659        H  0.83995934  0.38262836  0.05491030     0.19010
H660        H  0.85515935  0.27064711  0.95721495     0.19020
C661        C  0.12419238  0.64881836  0.99649343    -0.06810
C662        C  0.14222034  0.66322032  0.03203407    -0.17940
C663        C  0.16490583  0.69915067  0.03249768     0.10390
C664        C  0.17100272  0.72168250  0.99648527    -0.06740
C665        C  0.14950539  0.70941031  0.96200481    -0.17970
C666        C  0.12626552  0.67378750  0.96161740     0.10420
S667        S  0.18994354  0.71231451  0.07896345    -0.32940
S668        S  0.10128121  0.66154815  0.91479129    -0.32940
H669        H  0.09655559  0.62018992  0.92170657     0.28430
H670        H  0.19704272  0.75276425  0.06848107     0.28420
H671        H  0.13854660  0.64646579  0.05981611     0.19010
H672        H  0.15420001  0.72542865  0.93385066     0.19020
C673        C  0.13150788  0.36644452  0.00403392    -0.06810
C674        C  0.12296533  0.33427413  0.03055852    -0.17940
C675        C  0.14801265  0.30035913  0.03343677     0.10390
C676        C  0.18275729  0.29757702  0.00920754    -0.06740
C677        C  0.18981475  0.32831610  0.98058058    -0.17970
C678        C  0.16478699  0.36247719  0.97769934     0.10420
S679        S  0.13620226  0.26313046  0.07127274    -0.32940
S680        S  0.17760202  0.39998863  0.94045038    -0.32940
H681        H  0.13796335  0.41218679  0.93258130     0.28430
H682        H  0.15750888  0.23146648  0.05290973     0.28420
H683        H  0.09702116  0.33610351  0.05029694     0.19010
H684        H  0.21679686  0.32710199  0.96227174     0.19020
C685        C  0.81137484  0.53737204  0.81414872    -0.06810
C686        C  0.80900062  0.50055597  0.83493214    -0.17940
C687        C  0.83993111  0.48818594  0.85978569     0.10390
C688        C  0.87332739  0.51353197  0.86414596    -0.06740
C689        C  0.87605317  0.55016267  0.84328708    -0.17970
C690        C  0.84501171  0.56256096  0.81828987     0.10420
S691        S  0.83572930  0.43959938  0.88411540    -0.32940
S692        S  0.84970623  0.61046091  0.79295928    -0.32940
H693        H  0.80824606  0.61722136  0.78809522     0.28430
H694        H  0.87728676  0.43197021  0.88639348     0.28420
H695        H  0.78362333  0.48053204  0.83032043     0.19010
H696        H  0.90171778  0.56983974  0.84779138     0.19020
C697        C  0.13528615  0.48583145  0.87418097    -0.06810
C698        C  0.13027000  0.45129756  0.85036362    -0.17940
C699        C  0.16084052  0.43842880  0.82510187     0.10390
C700        C  0.19637400  0.46112917  0.82344839    -0.06740
C701        C  0.20193166  0.49463880  0.84873439    -0.17970
C702        C  0.17138922  0.50766773  0.87367192     0.10420
S703        S  0.15257601  0.39406346  0.79478575    -0.32940
S704        S  0.17899253  0.55396666  0.90128967    -0.32940
H705        H  0.13875287  0.56661604  0.89879850     0.28430
H706        H  0.19345639  0.38575173  0.78775279     0.28420
H707        H  0.10260138  0.43409773  0.85180408     0.19010
H708        H  0.22885640  0.51295117  0.84634789     0.19020
C709        C  0.12588330  0.50613874  0.13714943    -0.06810
C710        C  0.12246886  0.47513615  0.16561971    -0.17940
C711        C  0.15254475  0.46896814  0.19377639     0.10390
C712        C  0.18550229  0.49549596  0.19403541    -0.06740
C713        C  0.18833179  0.52715052  0.16629773    -0.17970
C714        C  0.15882555  0.53272329  0.13752508     0.10420
S715        S  0.14806968  0.42598840  0.22698372    -0.32940
S716        S  0.16527446  0.57404802  0.10262401    -0.32940
H717        H  0.12442500  0.57967646  0.09362814     0.28430
H718        H  0.18956961  0.41870009  0.23066739     0.28420
H719        H  0.09729945  0.45436949  0.16451594     0.19010
H720        H  0.21366606  0.54772078  0.16727226     0.19020
C721        C  0.80314058  0.54785045  0.17716040    -0.06810
C722        C  0.79666073  0.51518831  0.15094315    -0.17940
C723        C  0.82671493  0.50196231  0.12553907     0.10390
C724        C  0.86346579  0.52272243  0.12535341    -0.06740
C725        C  0.86898285  0.55732260  0.14900706    -0.17970
C726        C  0.83883812  0.57039274  0.17481661     0.10420
S727        S  0.81726442  0.45671345  0.09684048    -0.32940
S728        S  0.84802373  0.61459865  0.20516749    -0.32940
H729        H  0.80741065  0.62229501  0.21419833     0.28430
H730        H  0.85711143  0.44270647  0.09757740     0.28420
H731        H  0.76957090  0.49713583  0.15315350     0.19010
H732        H  0.89681759  0.57427149  0.14720798     0.19020
C733        C  0.50526031  0.32613528  0.79353029    -0.06810
C734        C  0.53149452  0.31690836  0.82575581    -0.17940
C735        C  0.53358710  0.34116312  0.86058509     0.10390
C736        C  0.50867142  0.37550158  0.86366244    -0.06740
C737        C  0.48541502  0.38651306  0.82969142    -0.17970
C738        C  0.48386648  0.36261127  0.79489883     0.10420
S739        S  0.56789715  0.32620564  0.90000213    -0.32940
S740        S  0.45100275  0.37799355  0.75446059    -0.32940
H741        H  0.46946831  0.35440998  0.72444311     0.28430
H742        H  0.57820572  0.36557435  0.91171935     0.28420
H743        H  0.54789018  0.28870070  0.82526512     0.19010
H744        H  0.46709003  0.41349439  0.83063973     0.19020
C745        C  0.49734178  0.67597894  0.78731478    -0.06810
C746        C  0.52967855  0.67822695  0.81496792    -0.17940
C747        C  0.52933520  0.65747377  0.85216560     0.10390
C748        C  0.49722852  0.63133468  0.86185870    -0.06740
C749        C  0.46671235  0.62623869  0.83261637    -0.17970
C750        C  0.46597760  0.64867061  0.79634159     0.10420
S751        S  0.57065978  0.66592026  0.88612851    -0.32940
S752        S  0.42287389  0.64321296  0.76384086    -0.32940
H753        H  0.44134329  0.65909729  0.72908763     0.28430
H754        H  0.54617082  0.67263508  0.92005778     0.28420
H755        H  0.55338739  0.70000915  0.80959099     0.19010
H756        H  0.44266864  0.60503333  0.83843016     0.19020
C757        C  0.48910978  0.63313905  0.14475588    -0.06810
C758        C  0.50440043  0.62133389  0.18295916    -0.17940
C759        C  0.50776952  0.64835197  0.21568964     0.10390
C760        C  0.49257464  0.68790491  0.21196744    -0.06740
C761        C  0.47170604  0.69753382  0.17591667    -0.17970
C762        C  0.47101073  0.67163882  0.14225271     0.10420
S763        S  0.53392239  0.63054814  0.26004813    -0.32940
S764        S  0.44801264  0.69082506  0.09687377    -0.32940
H765        H  0.43101563  0.65389818  0.08551958     0.28430
H766        H  0.54405873  0.66786829  0.27692334     0.28420
H767        H  0.51635638  0.59127932  0.18686918     0.19010
H768        H  0.45969948  0.72767507  0.17227553     0.19020
C769        C  0.52036623  0.32866948  0.21774075    -0.06810
C770        C  0.48240445  0.33348784  0.19963263    -0.17940
C771        C  0.47709834  0.35820567  0.16534278     0.10390
C772        C  0.51093751  0.37631008  0.14659517    -0.06740
C773        C  0.54799895  0.37436476  0.16676812    -0.17970
C774        C  0.55272719  0.35188854  0.20238797     0.10420
S775        S  0.42640940  0.36527494  0.14753866    -0.32940
S776        S  0.60193750  0.35088031  0.22524379    -0.32940
H777        H  0.58879985  0.33696666  0.26318869     0.28430
H778        H  0.43266070  0.40112528  0.12598265     0.28420
H779        H  0.45716645  0.31608812  0.21081608     0.19010
H780        H  0.57359774  0.39064270  0.15468817     0.19020
C781        C  0.64037382  0.13465508  0.00160541    -0.06810
C782        C  0.67195393  0.12670068  0.97435801    -0.17940
C783        C  0.70710479  0.15001328  0.97373498     0.10390
C784        C  0.71169985  0.18223332  0.00107493    -0.06740
C785        C  0.68181689  0.18784997  0.03082807    -0.17970
C786        C  0.64611743  0.16501731  0.03093937     0.10420
S787        S  0.74354658  0.13987754  0.93472859    -0.32940
S788        S  0.60914811  0.17590093  0.06912895    -0.32940
H789        H  0.57822536  0.18323045  0.04113066     0.28430
H790        H  0.77585710  0.15909511  0.95423371     0.28420
H791        H  0.66877720  0.10259762  0.95249372     0.19010
H792        H  0.68438543  0.21305905  0.05146853     0.19020
C793        C  0.36027171  0.87705692  0.99517723    -0.06810
C794        C  0.33397445  0.87195429  0.02813976    -0.17940
C795        C  0.29894772  0.84804135  0.02551204     0.10390
C796        C  0.28806209  0.82974986  0.98845977    -0.06740
C797        C  0.31260587  0.83819964  0.95452681    -0.17970
C798        C  0.34874996  0.86026170  0.95763552     0.10420
S799        S  0.27164251  0.83857973  0.07152058    -0.32940
S800        S  0.38016111  0.86265271  0.91312502    -0.32940
H801        H  0.40203399  0.89738137  0.92317664     0.28430
H802        H  0.23406340  0.83429779  0.05271620     0.28420
H803        H  0.34139180  0.88583924  0.05666208     0.19010
H804        H  0.30598207  0.82331009  0.92614410     0.19020
C805        C  0.70857761  0.82355351  0.00395431    -0.06810
C806        C  0.68227466  0.82057320  0.97075877    -0.17940
C807        C  0.64925509  0.84690305  0.96588391     0.10390
C808        C  0.64091572  0.87639660  0.99579588    -0.06740
C809        C  0.66939106  0.88145484  0.02693363    -0.17970
C810        C  0.70260299  0.85564516  0.03133337     0.10420
S811        S  0.62052550  0.84139815  0.92012468    -0.32940
S812        S  0.73449414  0.86283658  0.07479294    -0.32940
H813        H  0.76801398  0.84249779  0.05882295     0.28430
H814        H  0.60067966  0.87859651  0.92156930     0.28420
H815        H  0.68608971  0.79591477  0.94965379     0.19010
H816        H  0.66496199  0.90505987  0.04912152     0.19020
C817        C  0.36104890  0.13527461  0.00353442    -0.06810
C818        C  0.32987346  0.12807705  0.03143601    -0.17940
C819        C  0.29591109  0.15306746  0.03370313     0.10390
C820        C  0.29211374  0.18636510  0.00741152    -0.06740
C821        C  0.32180962  0.19176907  0.97742603    -0.17970
C822        C  0.35595461  0.16671067  0.97510358     0.10420
S823        S  0.26045771  0.14370211  0.07385127    -0.32940
S824        S  0.39213806  0.17725738  0.93589563    -0.32940
H825        H  0.40536249  0.13741640  0.93091332     0.28430
H826        H  0.22811506  0.16404717  0.05561226     0.28420
H827        H  0.33265048  0.10343869  0.05277766     0.19010
H828        H  0.32008190  0.21786829  0.95780767     0.19020
C829        C  0.45288219  0.20271404  0.82172127    -0.06810
C830        C  0.48253828  0.21059661  0.85111901    -0.17940
C831        C  0.49732150  0.18034191  0.87572500     0.10390
C832        C  0.48119522  0.14138200  0.87214670    -0.06740
C833        C  0.45018268  0.13374672  0.84445916    -0.17970
C834        C  0.43502038  0.16430411  0.82002536     0.10420
S835        S  0.53914899  0.19276188  0.90830103    -0.32940
S836        S  0.39376152  0.15255819  0.78659969    -0.32940
H837        H  0.38141303  0.19268594  0.78089042     0.28430
H838        H  0.55820255  0.15506258  0.90492842     0.28420
H839        H  0.49739724  0.23955440  0.85252129     0.19010
H840        H  0.43729278  0.10390841  0.84236475     0.19020
C841        C  0.48309905  0.81529832  0.81067727    -0.06810
C842        C  0.49720954  0.80496891  0.84900982    -0.17940
C843        C  0.49963141  0.83318368  0.87924538     0.10390
C844        C  0.48997013  0.87380682  0.87005600    -0.06740
C845        C  0.47505321  0.88404232  0.83184121    -0.17970
C846        C  0.47056813  0.85497669  0.80217217     0.10420
S847        S  0.51420354  0.81352385  0.92810729    -0.32940
S848        S  0.44745308  0.86880668  0.75468166    -0.32940
H849        H  0.44426345  0.91042555  0.76194452     0.28430
H850        H  0.54054144  0.84475097  0.93773663     0.28420
H851        H  0.50744492  0.77462213  0.85543208     0.19010
H852        H  0.46583266  0.91469195  0.82556991     0.19020
C853        C  0.52046204  0.87383610  0.13109190    -0.06810
C854        C  0.49032843  0.86694991  0.15933011    -0.17940
C855        C  0.49591200  0.83895635  0.18956842     0.10390
C856        C  0.53336479  0.81880378  0.19247872    -0.06740
C857        C  0.56361185  0.82568483  0.16409278    -0.17970
C858        C  0.55755908  0.85340895  0.13323936     0.10420
S859        S  0.45339272  0.82949854  0.22215637    -0.32940
S860        S  0.59820825  0.86155398  0.09820478    -0.32940
H861        H  0.58891950  0.90175304  0.08871515     0.28430
H862        H  0.45604081  0.78743001  0.21934301     0.28420
H863        H  0.46187956  0.88277272  0.15712637     0.19010
H864        H  0.59183849  0.80946941  0.16607848     0.19020
C865        C  0.51981765  0.13570236  0.13470265    -0.06810
C866        C  0.55202851  0.12747795  0.16088211    -0.17940
C867        C  0.56590890  0.15656257  0.18765322     0.10390
C868        C  0.54658684  0.19420052  0.18860164    -0.06740
C869        C  0.51487008  0.20248690  0.16168116    -0.17970
C870        C  0.50100041  0.17354231  0.13509471     0.10420
S871        S  0.60783054  0.14392427  0.21985752    -0.32940
S872        S  0.45758091  0.18586186  0.10467077    -0.32940
H873        H  0.44119561  0.14677293  0.10475233     0.28430
H874        H  0.61991580  0.18382848  0.22732547     0.28420
H875        H  0.56696230  0.09848528  0.15993336     0.19010
H876        H  0.49874668  0.23083142  0.16331843     0.19020
C877        C  0.28864084  0.99964103  0.17561027    -0.06810
C878        C  0.30728260  0.96431629  0.16126823    -0.17940
C879        C  0.34474045  0.96537029  0.14159830     0.10390
C880        C  0.36335418  0.00264065  0.13289310    -0.06740
C881        C  0.34278807  0.03816660  0.14326650    -0.17970
C882        C  0.30626897  0.03704286  0.16490731     0.10420
S883        S  0.36837339  0.91782796  0.13032024    -0.32940
S884        S  0.28535727  0.08423783  0.18162378    -0.32940
H885        H  0.24629846  0.06938250  0.18811900     0.28430
H886        H  0.40819127  0.93173760  0.13260456     0.28420
H887        H  0.29531105  0.93531546  0.17038233     0.19010
H888        H  0.35549147  0.06704557  0.13484248     0.19020
C889        C  0.70735866  0.01078494  0.81505246    -0.06810
C890        C  0.70711395  0.98693149  0.84992803    -0.17940
C891        C  0.67358129  0.98542433  0.87566243     0.10390
C892        C  0.63902029  0.00964329  0.86794441    -0.06740
C893        C  0.64044601  0.03592347  0.83465948    -0.17970
C894        C  0.67407116  0.03683585  0.80850427     0.10420
S895        S  0.67561881  0.94832767  0.91539357    -0.32940
S896        S  0.67170018  0.06960759  0.76513776    -0.32940
H897        H  0.71331707  0.06990421  0.75758218     0.28430
H898        H  0.63485081  0.93797421  0.91216363     0.28420
H899        H  0.73137955  0.96562220  0.85462737     0.19010
H900        H  0.61519528  0.05569328  0.82879709     0.19020
C901        C  0.28725833  0.98790371  0.82601910    -0.06810
C902        C  0.30577074  0.02598456  0.82879828    -0.17940
C903        C  0.33920448  0.03266625  0.85433489     0.10390
C904        C  0.35675924  0.00007059  0.87560913    -0.06740
C905        C  0.33608585  0.96319522  0.87548352    -0.17970
C906        C  0.30170849  0.95694709  0.85160603     0.10420
S907        S  0.35711725  0.08351487  0.85914168    -0.32940
S908        S  0.27935194  0.90746731  0.85228234    -0.32940
H909        H  0.24167184  0.91966975  0.83732831     0.28430
H910        H  0.37430789  0.07916279  0.89763726     0.28420
H911        H  0.29542089  0.05016965  0.80941478     0.19010
H912        H  0.34699558  0.93881490  0.89408550     0.19020
C913        C  0.49835002  0.14649429  0.37750896    -0.06810
C914        C  0.52319608  0.17991945  0.38572717    -0.17940
C915        C  0.52580392  0.21295646  0.35927737     0.10390
C916        C  0.50232003  0.21388663  0.32376941    -0.06740
C917        C  0.47395377  0.18267333  0.31803120    -0.17970
C918        C  0.47222923  0.14897121  0.34392572     0.10420
S919        S  0.56296687  0.25090354  0.37016753    -0.32940
S920        S  0.43601737  0.11023758  0.33289859    -0.32940
H921        H  0.46568848  0.08123110  0.32454877     0.28430
H922        H  0.54220877  0.28244376  0.35106992     0.28420
H923        H  0.54209792  0.17966843  0.41235066     0.19010
H924        H  0.45591812  0.18249831  0.29075292     0.19020
C925        C  0.50594822  0.79384411  0.32933796    -0.06810
C926        C  0.46875664  0.81346279  0.33464768    -0.17940
C927        C  0.46500619  0.84791028  0.35957572     0.10390
C928        C  0.49971828  0.86528463  0.37749658    -0.06740
C929        C  0.53587079  0.84358317  0.37502144    -0.17970
C930        C  0.53910635  0.80813108  0.35213210     0.10420
S931        S  0.41508519  0.86753335  0.36738612    -0.32940
S932        S  0.58791984  0.78468206  0.34912303    -0.32940
H933        H  0.57365789  0.74687891  0.33630454     0.28430
H934        H  0.42273081  0.88857177  0.40337811     0.28420
H935        H  0.44293261  0.80330102  0.31748722     0.19010
H936        H  0.56208434  0.85442421  0.39114677     0.19020
C937        C  0.50442374  0.14328685  0.63778991    -0.06810
C938        C  0.47429068  0.17249099  0.63241173    -0.17940
C939        C  0.47257837  0.20710360  0.65639730     0.10390
C940        C  0.50132550  0.21314031  0.68719834    -0.06740
C941        C  0.53303458  0.18522956  0.69096909    -0.17970
C942        C  0.53525895  0.15081848  0.66617273     0.10420
S943        S  0.43031254  0.24044340  0.64930844    -0.32940
S944        S  0.57776369  0.11769292  0.67238575    -0.32940
H945        H  0.58007296  0.10583437  0.63167456     0.28430
H946        H  0.44868131  0.27448299  0.66659429     0.28420
H947        H  0.45119957  0.16784891  0.60973841     0.19010
H948        H  0.55469782  0.18888378  0.71515299     0.19020
C949        C  0.50266961  0.78485157  0.67227521    -0.06810
C950        C  0.53866983  0.79909108  0.65516349    -0.17940
C951        C  0.54029369  0.83601453  0.63395826     0.10390
C952        C  0.50569513  0.86105251  0.63143821    -0.06740
C953        C  0.46940190  0.84571799  0.64648152    -0.17970
C954        C  0.46716317  0.80735993  0.66441364     0.10420
S955        S  0.58797665  0.84964353  0.61193840    -0.32940
S956        S  0.41860993  0.79080345  0.68221195    -0.32940
H957        H  0.42914236  0.74990521  0.68546020     0.28430
H958        H  0.57987240  0.89063636  0.60586546     0.28420
H959        H  0.56638324  0.78301478  0.66118513     0.19010
H960        H  0.44216936  0.86332135  0.64328461     0.19020
C961        C  0.31338091  0.98641336  0.31807408    -0.06810
C962        C  0.30828071  0.01821045  0.34542019    -0.17940
C963        C  0.33685239  0.02566244  0.37456786     0.10390
C964        C  0.37077257  0.00064462  0.37596643    -0.06740
C965        C  0.37605455  0.96910277  0.34844055    -0.17970
C966        C  0.34704128  0.96106353  0.31979329     0.10420
S967        S  0.32947791  0.06853371  0.40722415    -0.32940
S968        S  0.35431544  0.91832473  0.28684027    -0.32940
H969        H  0.31325157  0.91053348  0.28033454     0.28430
H970        H  0.37051662  0.07781279  0.41078822     0.28420
H971        H  0.28257005  0.03818451  0.34304163     0.19010
H972        H  0.40257920  0.95027327  0.34986625     0.19020
C973        C  0.69573145  0.95481816  0.68586054    -0.06810
C974        C  0.70260762  0.98739567  0.65945562    -0.17940
C975        C  0.67217952  0.00254439  0.63548831     0.10390
C976        C  0.63438848  0.98375306  0.63653342    -0.06740
C977        C  0.62771021  0.95015577  0.66139689    -0.17970
C978        C  0.65825701  0.93517330  0.68581945     0.10420
S979        S  0.68264216  0.04769738  0.60677642    -0.32940
S980        S  0.64753751  0.89198764  0.71708748    -0.32940
H981        H  0.68790099  0.88103155  0.72343542     0.28430
H982        H  0.64353954  0.06365036  0.60944297     0.28420
H983        H  0.73077221  0.00382109  0.66023843     0.19010
H984        H  0.59877947  0.93512894  0.66129013     0.19020
C985        C  0.37162772  0.98798130  0.63979199    -0.06810
C986        C  0.37601381  0.95098295  0.65985193    -0.17940
C987        C  0.34518048  0.93595449  0.68384959     0.10390
C988        C  0.30994507  0.95881178  0.68808314    -0.06740
C989        C  0.30561316  0.99564783  0.66753038    -0.17970
C990        C  0.33624345  0.01061778  0.64360457     0.10420
S991        S  0.35209663  0.88776775  0.70798581    -0.32940
S992        S  0.32908581  0.05926201  0.62013986    -0.32940
H993        H  0.36998338  0.07008998  0.61936782     0.28430
H994        H  0.31099918  0.87887066  0.71251999     0.28420
H995        H  0.40300891  0.93313541  0.65566431     0.19010
H996        H  0.27901200  0.01402176  0.67198855     0.19020
C997        C  0.71751191  0.99502912  0.17138182    -0.06810
C998        C  0.70511563  0.03195495  0.15453240    -0.17940
C999        C  0.66935153  0.03537064  0.13190747     0.10390
C1000       C  0.64485016  0.00103765  0.12526075    -0.06740
C1001       C  0.65915275  0.96353760  0.13870873    -0.17970
C1002       C  0.69504330  0.96019670  0.16112160     0.10420
S1003       S  0.65615169  0.08498323  0.11390432    -0.32700
S1004       S  0.70869172  0.91108680  0.17982722    -0.32940
H1005       H  0.74921312  0.92066587  0.18733263     0.28430
H1006       H  0.61498794  0.07813226  0.10777789     0.28420
H1007       H  0.72108661  0.05920791  0.16277601     0.19010
H1008       H  0.64213611  0.93657472  0.13191609     0.19020
C1009       C  0.63233894  0.00596454  0.37448972    -0.06810
C1010       C  0.65009818  0.04238889  0.36331576    -0.17940
C1011       C  0.67778426  0.04338406  0.33214762     0.10390
C1012       C  0.68750704  0.00705416  0.31275077    -0.06740
C1013       C  0.66957726  0.97064529  0.32385505    -0.17970
C1014       C  0.64209724  0.96967513  0.35511027     0.10420
S1015       S  0.69967481  0.09135108  0.31881072    -0.32940
S1016       S  0.62083083  0.92165563  0.36914958    -0.32940
H1017       H  0.61965273  0.92950323  0.41086145     0.28430
H1018       H  0.70714353  0.08235079  0.27801179     0.28420
H1019       H  0.64189964  0.07006228  0.37846771     0.19010
H1020       H  0.67782915  0.94287362  0.30871921     0.19020
C1021       C  0.31503677  0.80315495  0.50081897    -0.06810
C1022       C  0.34947376  0.80207020  0.52504702    -0.17940
C1023       C  0.37602442  0.83477833  0.52689837     0.10390
C1024       C  0.36952286  0.86959330  0.50280626    -0.06740
C1025       C  0.33653136  0.86958151  0.47627347    -0.17970
C1026       C  0.30947910  0.83683125  0.47498434     0.10420
S1027       S  0.41526059  0.83160358  0.56411175    -0.32940
S1028       S  0.26661821  0.84074230  0.44188864    -0.32940
H1029       H  0.25834088  0.79922891  0.44053192     0.28430
H1030       H  0.41211080  0.87216306  0.57605903     0.28420
H1031       H  0.35332504  0.77739759  0.54618856     0.19010
H1032       H  0.33160162  0.89526860  0.45667746     0.19020
C1033       C  0.68006296  0.79682381  0.50615172    -0.06810
C1034       C  0.68834506  0.82910247  0.53259865    -0.17940
C1035       C  0.66396651  0.86374235  0.53395834     0.10390
C1036       C  0.62970962  0.86638130  0.50870658    -0.06740
C1037       C  0.61977103  0.83260284  0.48481722    -0.17970
C1038       C  0.64437263  0.79830876  0.48326410     0.10420
S1039       S  0.67931053  0.90363231  0.56753147    -0.32940
S1040       S  0.63104137  0.75902719  0.44818221    -0.32940
H1041       H  0.65287806  0.72841034  0.46766693     0.28430
H1042       H  0.64038687  0.91705018  0.57653674     0.28420
H1043       H  0.71627005  0.82896178  0.54950883     0.19010
H1044       H  0.59323038  0.83347098  0.46581705     0.19020
C1045       C  0.62983616  0.14805846  0.50532389    -0.06810
C1046       C  0.64104678  0.16656902  0.54182903    -0.17940
C1047       C  0.66304361  0.20293956  0.54248747     0.10390
C1048       C  0.67466723  0.22207935  0.50595694    -0.06740
C1049       C  0.65985930  0.20550884  0.46967278    -0.17970
C1050       C  0.63823169  0.16892819  0.46886533     0.10420
S1051       S  0.67938798  0.22156697  0.59088784    -0.32940
S1052       S  0.62408143  0.14991195  0.41976768    -0.32940
H1053       H  0.61339876  0.11070967  0.43135244     0.28430
H1054       H  0.68783609  0.26087317  0.57745283     0.28420
H1055       H  0.63283359  0.15241516  0.57018062     0.19010
H1056       H  0.66927745  0.21869519  0.44122820     0.19020
C1057       C  0.32813883  0.22183681  0.51808235    -0.06810
C1058       C  0.34538040  0.21056699  0.48098612    -0.17940
C1059       C  0.36957390  0.17580584  0.47720474     0.10390
C1060       C  0.37570014  0.15010178  0.51108960    -0.06740
C1061       C  0.36120497  0.16309825  0.54873334    -0.17970
C1062       C  0.33849054  0.19869171  0.55264557     0.10420
S1063       S  0.38988443  0.16588263  0.42752948    -0.32940
S1064       S  0.31962962  0.21109017  0.60217658    -0.32940
H1065       H  0.31095507  0.25161712  0.59330000     0.28430
H1066       H  0.41249301  0.13142862  0.43621913     0.28420
H1067       H  0.33727893  0.22717985  0.45398773     0.19010
H1068       H  0.36775631  0.14541884  0.57548072     0.19020
C1069       C  0.87164716  0.99950109  0.63849486    -0.06810
C1070       C  0.87734864  0.96953449  0.66807041    -0.17940
C1071       C  0.85411302  0.96810525  0.70346759     0.10390
C1072       C  0.82364725  0.99700597  0.71031091    -0.06740
C1073       C  0.82008678  0.02894693  0.68242601    -0.17970
C1074       C  0.84361253  0.03053569  0.64687225     0.10420
S1075       S  0.86188222  0.92624480  0.73729156    -0.32940
S1076       S  0.83722423  0.07346119  0.61424424    -0.32940
H1077       H  0.83703690  0.05135577  0.57813880     0.28430
H1078       H  0.84422583  0.94465836  0.77120982     0.28420
H1079       H  0.89988477  0.94643696  0.66324342     0.19010
H1080       H  0.79644685  0.05101902  0.68661815     0.19020
C1081       C  0.17540780  0.98427937  0.71516848    -0.06810
C1082       C  0.17540581  0.02096015  0.69378425    -0.17940
C1083       C  0.15182647  0.02660368  0.65877594     0.10390
C1084       C  0.12804360  0.99459363  0.64358997    -0.06740
C1085       C  0.12578590  0.95906432  0.66668265    -0.17970
C1086       C  0.14880249  0.95370341  0.70193836     0.10420
S1087       S  0.15426950  0.07519813  0.63498561    -0.32940
S1088       S  0.14605024  0.90547611  0.72684452    -0.32940
H1089       H  0.16168281  0.91882644  0.76400228     0.28430
H1090       H  0.11736180  0.07278448  0.61464201     0.28420
H1091       H  0.19630619  0.04440792  0.70265026     0.19010
H1092       H  0.10637952  0.93477804  0.65668400     0.19020
C1093       C  0.17475231  0.99226480  0.28569704    -0.06810
C1094       C  0.16193836  0.95703555  0.30598987    -0.17940
C1095       C  0.14579218  0.95863753  0.34527336     0.10390
C1096       C  0.13544009  0.99603301  0.36255565    -0.06740
C1097       C  0.14469007  0.03119450  0.34093718    -0.17970
C1098       C  0.16423990  0.02978168  0.30320891     0.10420
S1099       S  0.14479578  0.91246132  0.37411540    -0.32940
S1100       S  0.17982573  0.07690045  0.28117587    -0.32940
H1101       H  0.18110348  0.06237678  0.24133030     0.28430
H1102       H  0.14701558  0.93038226  0.41246601     0.28420
H1103       H  0.17181600  0.92804056  0.29465200     0.19010
H1104       H  0.13773903  0.06010826  0.35421994     0.19020
C1105       C  0.87637056  0.99672694  0.35663641    -0.06810
C1106       C  0.86266835  0.95975211  0.34123531    -0.17940
C1107       C  0.83909858  0.95781783  0.30583487     0.10390
C1108       C  0.82872397  0.99347294  0.28457071    -0.06740
C1109       C  0.84557015  0.02992742  0.29820000    -0.17970
C1110       C  0.86849692  0.03199079  0.33392895     0.10420
S1111       S  0.81960402  0.90932227  0.29122144    -0.32940
S1112       S  0.88490511  0.08110792  0.35009617    -0.32940
H1113       H  0.88574254  0.07275850  0.39170064     0.28430
H1114       H  0.81129273  0.92000336  0.25096124     0.28420
H1115       H  0.86999199  0.93215813  0.35712649     0.19010
H1116       H  0.83693051  0.05778677  0.28346895     0.19020
C1117       C  0.18514852  0.81079150  0.55513045    -0.06810
C1118       C  0.15928738  0.80259190  0.52241315    -0.17940
C1119       C  0.13478014  0.83198202  0.50624240     0.10390
C1120       C  0.13424996  0.87011215  0.52437332    -0.06740
C1121       C  0.15802480  0.87804345  0.55856842    -0.17970
C1122       C  0.18339252  0.84858054  0.57431859     0.10420
S1123       S  0.10731515  0.81968498  0.46074848    -0.32940
S1124       S  0.21319323  0.86096773  0.61812823    -0.32940
H1125       H  0.22123515  0.82093422  0.62946030     0.28430
H1126       H  0.10892423  0.85860223  0.44399561     0.28420
H1127       H  0.16079259  0.77420222  0.50657525     0.19010
H1128       H  0.15621785  0.90704919  0.57351515     0.19020
C1129       C  0.87227087  0.86733776  0.48052937    -0.06810
C1130       C  0.86022950  0.86226732  0.44016768    -0.17940
C1131       C  0.82788839  0.83734039  0.43063617     0.10390
C1132       C  0.80873237  0.81665094  0.46205331    -0.06740
C1133       C  0.81964003  0.82347596  0.50248314    -0.17970
C1134       C  0.85138624  0.84856853  0.51211725     0.10420
S1135       S  0.81131379  0.83438869  0.37888784    -0.32940
S1136       S  0.86240446  0.85679277  0.56496631    -0.32940
H1137       H  0.90360046  0.86498629  0.56045321     0.28430
H1138       H  0.77147904  0.82278103  0.38682109     0.28420
H1139       H  0.87521821  0.87882967  0.41629226     0.19010
H1140       H  0.80329920  0.80875375  0.52666423     0.19020
C1141       C  0.86958102  0.12826165  0.50247608    -0.06810
C1142       C  0.84150171  0.12791422  0.47108992    -0.17940
C1143       C  0.81429518  0.15904492  0.46727340     0.10390
C1144       C  0.81489281  0.18992767  0.49632299    -0.06740
C1145       C  0.84252614  0.18984373  0.52813586    -0.17970
C1146       C  0.87007038  0.15901992  0.53165332     0.10420
S1147       S  0.78067438  0.15828455  0.42440833    -0.32940
S1148       S  0.90426549  0.16037573  0.57408849    -0.32940
H1149       H  0.90943533  0.11847201  0.57740123     0.28430
H1150       H  0.77716669  0.20033335  0.42061875     0.28420
H1151       H  0.84196938  0.10423163  0.44853066     0.19010
H1152       H  0.84199281  0.21349809  0.55073106     0.19020
C1153       C  0.13204682  0.13302137  0.50209862    -0.06810
C1154       C  0.15681229  0.13216810  0.53612095    -0.17940
C1155       C  0.18316474  0.16335763  0.54365963     0.10390
C1156       C  0.18577482  0.19471813  0.51529844    -0.06740
C1157       C  0.16101832  0.19559829  0.48108271    -0.17970
C1158       C  0.13392723  0.16479273  0.47414600     0.10420
S1159       S  0.21183985  0.16194671  0.58998257    -0.32940
S1160       S  0.10412027  0.16665099  0.42864060    -0.32940
H1161       H  0.10220240  0.12468320  0.42367288     0.28430
H1162       H  0.21530771  0.20394394  0.59438968     0.28420
H1163       H  0.15453030  0.10768537  0.55748696     0.19010
H1164       H  0.16384327  0.21966703  0.45908827     0.19020
C1165       C  0.00113069  0.64634990  0.12562829    -0.06810
C1166       C  0.97773029  0.68032825  0.11515441    -0.17940
C1167       C  0.97552127  0.71440209  0.14020834     0.10390
C1168       C  0.99634147  0.71501222  0.17711124    -0.06740
C1169       C  0.02409696  0.68370653  0.18474464    -0.17970
C1170       C  0.02634535  0.64935772  0.15989596     0.10420
S1171       S  0.94279412  0.75506164  0.12586632    -0.32940
S1172       S  0.06103525  0.61024031  0.17437483    -0.32940
H1173       H  0.06989295  0.59807318  0.13477339     0.28430
H1174       H  0.96112937  0.78416149  0.15060235     0.28420
H1175       H  0.95972734  0.67982899  0.08789522     0.19010
H1176       H  0.04077362  0.68386843  0.21287004     0.19020
C1177       C  0.99498343  0.86989420  0.35971344    -0.06810
C1178       C  0.95847838  0.84913996  0.36009211    -0.17940
C1179       C  0.94728430  0.82392054  0.32815925     0.10390
C1180       C  0.97512625  0.81451659  0.29692573    -0.06740
C1181       C  0.01059869  0.83730025  0.29492115    -0.17970
C1182       C  0.01969356  0.86637197  0.32468247     0.10420
S1183       S  0.89623937  0.80548034  0.32712006    -0.32940
S1184       S  0.06243161  0.89805507  0.31464544    -0.32940
H1185       H  0.06507019  0.91600779  0.35267638     0.28430
H1186       H  0.89281194  0.80272653  0.36941813     0.28420
H1187       H  0.93744931  0.85452663  0.38448783     0.19010
H1188       H  0.03170856  0.83209766  0.27056613     0.19020
C1189       C  0.99333612  0.28776021  0.82554094    -0.06810
C1190       C  0.03060682  0.29778128  0.84307720    -0.17940
C1191       C  0.03531958  0.33261588  0.86742324     0.10390
C1192       C  0.00274018  0.35993220  0.87254711    -0.06740
C1193       C  0.96550301  0.34927122  0.85598706    -0.17970
C1194       C  0.96000585  0.31292657  0.83497393     0.10420
S1195       S  0.08425416  0.34112325  0.88944110    -0.32940
S1196       S  0.91005823  0.30231031  0.81647652    -0.32940
H1197       H  0.91658123  0.26088977  0.81032774     0.28430
H1198       H  0.07925260  0.38201376  0.89875113     0.28420
H1199       H  0.05682549  0.27990976  0.83561484     0.19010
H1200       H  0.93989402  0.36892357  0.86055656     0.19020
C1201       C  0.99560559  0.17192025  0.71582323    -0.06810
C1202       C  0.03071051  0.17100245  0.69178975    -0.17940
C1203       C  0.03250963  0.14997780  0.65470706     0.10390
C1204       C  0.99899249  0.12708002  0.64157537    -0.06740
C1205       C  0.96555619  0.12455790  0.66768927    -0.17970
C1206       C  0.96338665  0.14676115  0.70393684     0.10420
S1207       S  0.07794066  0.15590038  0.62532030    -0.32940
S1208       S  0.91710741  0.14486168  0.73217443    -0.32940
H1209       H  0.93336183  0.16018148  0.76827518     0.28430
H1210       H  0.07077724  0.12681317  0.59557903     0.28420
H1211       H  0.05542841  0.19079698  0.69963979     0.19010
H1212       H  0.94029452  0.10569348  0.65925786     0.19020
C1213       C  0.00237485  0.71100679  0.81934273    -0.06810
C1214       C  0.97687518  0.70889770  0.85288483    -0.17940
C1215       C  0.97436840  0.67404228  0.87643794     0.10390
C1216       C  0.99986212  0.64060632  0.86844032    -0.06740
C1217       C  0.02770013  0.64379365  0.83675612    -0.17970
C1218       C  0.02935532  0.67858784  0.81242172     0.10420
S1219       S  0.93466763  0.67290535  0.91354659    -0.32940
S1220       S  0.06450668  0.67875972  0.77101259    -0.32940
H1221       H  0.07019518  0.72066316  0.77091299     0.28430
H1222       H  0.92601349  0.63181365  0.90812650     0.28420
H1223       H  0.95494858  0.73261649  0.85758705     0.19010
H1224       H  0.04842547  0.61925914  0.83108478     0.19020
C1225       C  0.00804448  0.81734683  0.70643248    -0.06810
C1226       C  0.03201724  0.80871337  0.67241350    -0.17940
C1227       C  0.03313009  0.83461621  0.63880639     0.10390
C1228       C  0.00914560  0.86978133  0.63852570    -0.06740
C1229       C  0.98801174  0.87988013  0.67404160    -0.17970
C1230       C  0.98756158  0.85442703  0.70776377     0.10420
S1231       S  0.06547317  0.82105901  0.59742791    -0.32940
S1232       S  0.95654234  0.86863632  0.75005268    -0.32940
H1233       H  0.97837440  0.84667470  0.77897819     0.28430
H1234       H  0.07758417  0.86093489  0.59001727     0.28420
H1235       H  0.04749335  0.78002705  0.67075901     0.19010
H1236       H  0.97031993  0.90727371  0.67513040     0.19020
C1237       C  0.13984364  0.63945997  0.50233364    -0.06810
C1238       C  0.17235867  0.62948899  0.52786961    -0.17940
C1239       C  0.20725153  0.65302280  0.52978563     0.10390
C1240       C  0.21053357  0.68811091  0.50607272    -0.06740
C1241       C  0.17959091  0.69643853  0.47807467    -0.17970
C1242       C  0.14444269  0.67267887  0.47594458     0.10420
S1243       S  0.24523436  0.63902122  0.56603290    -0.32940
S1244       S  0.10655277  0.68700964  0.43974220    -0.32940
H1245       H  0.09317588  0.64773474  0.43144333     0.28430
H1246       H  0.27665807  0.66063090  0.54756091     0.28420
H1247       H  0.17017752  0.60350510  0.54761128     0.19010
H1248       H  0.18142960  0.72351224  0.45986645     0.19020
C1249       C  0.86338886  0.37682916  0.50075465    -0.06810
C1250       C  0.84613278  0.36597747  0.46360824    -0.17940
C1251       C  0.80964186  0.34446148  0.46142805     0.10390
C1252       C  0.78934862  0.33228407  0.49716759    -0.06740
C1253       C  0.80508576  0.34597464  0.53424611    -0.17970
C1254       C  0.84147515  0.36788008  0.53639005     0.10420
S1255       S  0.79244444  0.32922960  0.41208452    -0.32940
S1256       S  0.85897738  0.38255351  0.58580525    -0.32940
H1257       H  0.90016662  0.38328332  0.57633452     0.28430
H1258       H  0.75267415  0.32096627  0.42398088     0.28420
H1259       H  0.86133470  0.37425889  0.43593390     0.19010
H1260       H  0.79106262  0.33610544  0.56210856     0.19020
C1261       C  0.21762484  0.33562757  0.51256375    -0.06810
C1262       C  0.19796625  0.34443483  0.47586709    -0.17940
C1263       C  0.16132508  0.36575162  0.47474561     0.10390
C1264       C  0.14466456  0.38181347  0.51064768    -0.06740
C1265       C  0.16643346  0.37662262  0.54676566    -0.17970
C1266       C  0.20192663  0.35331184  0.54811645     0.10420
S1267       S  0.13633795  0.36922766  0.42663908    -0.32940
S1268       S  0.22314967  0.34191244  0.59680960    -0.32940
H1269       H  0.26204064  0.33358610  0.58237735     0.28430
H1270       H  0.09692370  0.36902329  0.44174907     0.28420
H1271       H  0.20828146  0.32982452  0.44847216     0.19010
H1272       H  0.15498254  0.38969348  0.57444651     0.19020
C1273       C  0.85874122  0.63462450  0.50140357    -0.06810
C1274       C  0.85696162  0.66695038  0.52866910    -0.17940
C1275       C  0.82288532  0.69208462  0.53089802     0.10390
C1276       C  0.79010855  0.68654507  0.50411276    -0.06740
C1277       C  0.79074495  0.65283394  0.47874628    -0.17970
C1278       C  0.82426025  0.62714011  0.47708279     0.10420
S1279       S  0.82400405  0.73328151  0.56614218    -0.32940
S1280       S  0.82247774  0.58771948  0.43999992    -0.32940
H1281       H  0.86317019  0.59209000  0.42949675     0.28430
H1282       H  0.78204820  0.73749420  0.56904175     0.28420
H1283       H  0.88210428  0.67262000  0.54850919     0.19010
H1284       H  0.76669661  0.64883599  0.45699610     0.19020
C1285       C  0.15028922  0.50727582  0.38262608    -0.06810
C1286       C  0.16857029  0.46975961  0.37583030    -0.17940
C1287       C  0.20360201  0.46587442  0.35234243     0.10390
C1288       C  0.22174114  0.50027595  0.33482312    -0.06740
C1289       C  0.20602151  0.53827682  0.34558451    -0.17970
C1290       C  0.17096746  0.54215743  0.36934584     0.10420
S1291       S  0.22091357  0.41563788  0.34126601    -0.32940
S1292       S  0.15334819  0.59250008  0.37963947    -0.32940
H1293       H  0.13121661  0.58359911  0.41461484     0.28430
H1294       H  0.26018897  0.42711537  0.33054575     0.28420
H1295       H  0.15499935  0.44299846  0.38831848     0.19010
H1296       H  0.21877278  0.56506891  0.33191999     0.19020
C1297       C  0.87106163  0.50405996  0.36523745    -0.06810
C1298       C  0.85574780  0.54220244  0.35602036    -0.17940
C1299       C  0.81964695  0.54713795  0.33481800     0.10390
C1300       C  0.79944256  0.51334484  0.31813618    -0.06740
C1301       C  0.81472745  0.47479826  0.32717010    -0.17970
C1302       C  0.84968886  0.46981897  0.35115759     0.10420
S1303       S  0.80217560  0.59808917  0.32718771    -0.32940
S1304       S  0.86638380  0.41912729  0.36106938    -0.32940
H1305       H  0.90650126  0.42854146  0.37044574     0.28430
H1306       H  0.76174678  0.58762616  0.32032760     0.28420
H1307       H  0.87175148  0.56869513  0.36621382     0.19010
H1308       H  0.80081691  0.44858894  0.31357285     0.19020
C1309       C  0.13776920  0.50823391  0.63789687    -0.06810
C1310       C  0.15707818  0.47074162  0.64073163    -0.17940
C1311       C  0.19267155  0.46561230  0.66295641     0.10390
C1312       C  0.20981151  0.49816677  0.68455381    -0.06740
C1313       C  0.19173894  0.53632940  0.68008611    -0.17970
C1314       C  0.15695401  0.54193039  0.65597443     0.10420
S1315       S  0.21255162  0.41534165  0.66711694    -0.32940
S1316       S  0.13843440  0.59264512  0.65026327    -0.32940
H1317       H  0.11859441  0.58700481  0.61323664     0.28430
H1318       H  0.25226990  0.42725300  0.67560112     0.28420
H1319       H  0.14423706  0.44496986  0.62532755     0.19010
H1320       H  0.20354858  0.56154796  0.69713129     0.19020
C1321       C  0.85610113  0.51074596  0.62660998    -0.06810
C1322       C  0.84357229  0.47656994  0.64824849    -0.17940
C1323       C  0.80877881  0.47704919  0.67267692     0.10390
C1324       C  0.78484857  0.51233818  0.67563094    -0.06740
C1325       C  0.79541570  0.54516363  0.65085717    -0.17970
C1326       C  0.83062816  0.54496774  0.62711408     0.10420
S1327       S  0.79860510  0.43297489  0.70280752    -0.32940
S1328       S  0.84267461  0.59059767  0.60015779    -0.32940
H1329       H  0.88470538  0.58633539  0.60194952     0.28430
H1330       H  0.75766797  0.44147847  0.70902248     0.28420
H1331       H  0.86106072  0.44927065  0.64634704     0.19010
H1332       H  0.77858161  0.57298932  0.65355013     0.19020
C1333       C  0.98307251  0.63176902  0.36591741    -0.06810
C1334       C  0.94457063  0.64873916  0.36877293    -0.17940
C1335       C  0.92759295  0.66827203  0.33581895     0.10390
C1336       C  0.95007602  0.67156114  0.29999152    -0.06740
C1337       C  0.98667811  0.65083227  0.29607838    -0.17970
C1338       C  0.00391708  0.63188542  0.32898250     0.10420
S1339       S  0.87856441  0.69069193  0.34156867    -0.32940
S1340       S  0.05356113  0.61072848  0.32265023    -0.32940
H1341       H  0.06568226  0.61661793  0.36291961     0.28430
H1342       H  0.87112620  0.69510495  0.29994435     0.28420
H1343       H  0.92738694  0.64607293  0.39650890     0.19010
H1344       H  0.00437133  0.65347988  0.26874399     0.19020
C1345       C  0.99215805  0.37681569  0.63548795    -0.06810
C1346       C  0.01448274  0.34173679  0.62907430    -0.17940
C1347       C  0.00845373  0.30816672  0.65298455     0.10390
C1348       C  0.97849567  0.30980282  0.68306539    -0.06740
C1349       C  0.95498459  0.34431713  0.68834804    -0.17970
C1350       C  0.96258237  0.37848237  0.66580900     0.10420
S1351       S  0.04153823  0.26534762  0.64677308    -0.32940
S1352       S  0.93415513  0.42298136  0.67757788    -0.32940
H1353       H  0.96845015  0.44496153  0.68918266     0.28430
H1354       H  0.06152962  0.27878922  0.61181726     0.28420
H1355       H  0.03726534  0.34109257  0.60567049     0.19010
H1356       H  0.93268623  0.34548252  0.71225120     0.19020
C1357       C  0.97395339  0.63894866  0.63450571    -0.06810
C1358       C  0.94374210  0.66736464  0.62672470    -0.17940
C1359       C  0.92949030  0.69234291  0.65744139     0.10390
C1360       C  0.94658219  0.68945285  0.69627798    -0.06740
C1361       C  0.97414792  0.65832842  0.70442319    -0.17970
C1362       C  0.98898135  0.63420476  0.67396575     0.10420
S1363       S  0.89017758  0.72770368  0.64560176    -0.32940
S1364       S  0.02957131  0.60044347  0.68712577    -0.32940
H1365       H  0.04962545  0.60430319  0.64993025     0.28430
H1366       H  0.87799847  0.73403910  0.68580525     0.28420
H1367       H  0.93095169  0.66972205  0.59680781     0.19010
H1368       H  0.98788303  0.65526789  0.73386838     0.19020
C1369       C  0.98781707  0.36403733  0.13018517    -0.06810
C1370       C  0.01371302  0.33072358  0.12520158    -0.17940
C1371       C  0.01093236  0.29617540  0.14969933     0.10390
C1372       C  0.98157314  0.29389582  0.18043279    -0.06740
C1373       C  0.95353259  0.32581588  0.18317236    -0.17970
C1374       C  0.95632038  0.36051918  0.15867960     0.10420
S1375       S  0.04845416  0.25761094  0.14320274    -0.32940
S1376       S  0.91923186  0.39942526  0.16582727    -0.32940
H1377       H  0.91680493  0.41004047  0.12478674     0.28430
H1378       H  0.02439851  0.22602199  0.15784627     0.28420
H1379       H  0.03728081  0.33204480  0.10261971     0.19010
H1380       H  0.93137838  0.32528089  0.20719460     0.19020
C1381       C  0.99520643  0.12785424  0.35743581    -0.06810
C1382       C  0.96006697  0.15067161  0.35178665    -0.17940
C1383       C  0.95351614  0.17279516  0.31590031     0.10390
C1384       C  0.98414125  0.17593859  0.28623730    -0.06740
C1385       C  0.01746408  0.15039981  0.29031305    -0.17970
C1386       C  0.02305451  0.12637944  0.32486672     0.10420
S1387       S  0.90542657  0.19676249  0.30922000    -0.32940
S1388       S  0.06779428  0.09606719  0.32574192    -0.32940
H1389       H  0.07185144  0.09430094  0.36785902     0.28430
H1390       H  0.91036305  0.20479857  0.26780041     0.28420
H1391       H  0.93687248  0.15009129  0.37476382     0.19010
H1392       H  0.04152873  0.15233739  0.26829145     0.19020
C1393       C  0.01935299  0.31158592  0.31884705    -0.06810
C1394       C  0.04864478  0.34177969  0.31649157    -0.17940
C1395       C  0.04833261  0.37357729  0.34373155     0.10390
C1396       C  0.01895669  0.37379654  0.37446006    -0.06740
C1397       C  0.99073527  0.34299934  0.37752979    -0.17970
C1398       C  0.98952811  0.31282899  0.34920085     0.10420
S1399       S  0.08524418  0.41277648  0.33686227    -0.32940
S1400       S  0.94618955  0.28040342  0.35106275    -0.32940
H1401       H  0.93845341  0.28301761  0.30933727     0.28430
H1402       H  0.08654009  0.42486138  0.37742512     0.28420
H1403       H  0.07082710  0.34124761  0.29248400     0.19010
H1404       H  0.96753967  0.34406817  0.40059549     0.19020
loop_ 
_geom_bond_atom_site_label_1 
_geom_bond_atom_site_label_2 
_geom_bond_distance 
_geom_bond_site_symmetry_2 
_ccdc_geom_bond_type 
C1            C2   1.392   1_655  A
C1            C6   1.434       .  A
C1         C1372   1.496       .  S
C2            C3   1.381       .  A
C2            H7   1.086       .  S
C3            C4   1.380       .  A
C3         C1393   1.448       .  S
C4            C5   1.392   1_455  A
C4            H8   1.087       .  S
C5            C6   1.433       .  A
C5         C1384   1.494       .  S
C6            H9   1.082       .  S
O10         Zr46   2.389       .  S
O10          C21   1.285       .  A
O11         Zr45   2.427   1_655  S
O11          C22   1.291       .  A
O12         Zr18   2.503   1_655  S
O12          C23   1.304       .  A
O13         Zr18   2.522       .  S
O13          C24   1.307       .  A
O14         Zr48   2.406       .  S
O14          C24   1.283       .  A
O15         Zr47   2.425       .  S
O15          C23   1.288       .  A
O16         Zr18   2.375       .  S
O16          C22   1.282   1_455  A
O17         Zr18   2.399       .  S
O17          C21   1.285       .  A
Zr18         O19   2.344       .  S
Zr18         O20   2.349   1_455  S
Zr18         O28   2.329       .  S
Zr18         O26   2.356   1_455  S
O19         Zr45   2.355       .  S
O19         Zr48   2.337       .  S
O20         Zr46   2.339   1_655  S
O20         Zr47   2.342       .  S
C21        C1396   1.434       .  S
C22        C1333   1.438       .  S
C23        C1297   1.493       .  S
C24        C1285   1.495       .  S
H25          O26   0.965       .  S
O26         Zr45   2.353   1_655  S
O26         Zr47   2.327       .  S
H27          O28   0.965       .  S
O28         Zr46   2.339       .  S
O28         Zr48   2.321       .  S
O29         Zr45   2.429   1_655  S
O29          C52   1.291       .  A
O30         Zr46   2.377   1_655  S
O30          C53   1.284       .  A
O31         Zr47   2.416       .  S
O31          C54   1.286       .  A
O32         Zr48   2.393       .  S
O32          C55   1.283       .  A
O33         Zr48   2.423       .  S
O33          C56   1.286       .  A
O34         Zr47   2.403       .  S
O34          C57   1.282       .  A
O35         Zr49   2.519       .  S
O35          C58   1.307       .  A
O36         Zr49   2.530   1_455  S
O36          C59   1.309       .  A
O37         Zr47   2.421       .  S
O37          C58   1.286       .  A
O38         Zr48   2.396       .  S
O38          C59   1.282       .  A
O39         Zr45   2.508   1_655  S
O39          C54   1.305       .  A
O40         Zr46   2.529   1_655  S
O40          C57   1.309       .  A
O41         Zr46   2.515       .  S
O41          C56   1.307       .  A
O42         Zr45   2.510       .  S
O42          C55   1.306       .  A
O43         Zr49   2.383       .  S
O43          C52   1.283       .  A
O44         Zr49   2.397       .  S
O44          C53   1.284       .  A
Zr45         O51   2.340   1_455  S
Zr45         O63   2.361       .  S
Zr46         O50   2.345       .  S
Zr46         O61   2.340   1_455  S
Zr47         O51   2.327       .  S
Zr47         O61   2.329       .  S
Zr48         O50   2.332       .  S
Zr48         O63   2.344       .  S
Zr49         O50   2.338   1_655  S
Zr49         O51   2.338       .  S
Zr49         O63   2.352   1_655  S
Zr49         O61   2.346       .  S
C52        C1357   1.452       .  S
C53        C1345   1.436       .  S
C54        C1273   1.504       .  S
C55        C1237   1.496       .  S
C56        C1264   1.499       .  S
C57        C1249   1.497       .  S
C58        C1321   1.501       .  S
C59        C1309   1.496       .  S
H60          O61   0.965       .  S
H62          O63   0.966       .  S
C64          C65   1.399       .  A
C64          C69   1.418   1_655  A
C64        C1213   1.484   1_655  S
C65          C66   1.389       .  A
C65          H70   1.086       .  S
C66          C67   1.392       .  A
C66        C1360   1.473       .  S
C67          C68   1.396       .  A
C67          H71   1.084       .  S
C68          C69   1.418   1_655  A
C68        C1225   1.481   1_655  S
C69          H72   1.082       .  S
C73          C74   1.386       .  A
C73          C78   1.438       .  A
C73        C1189   1.503       .  S
C74          C75   1.379       .  A
C74          H79   1.087       .  S
C75          C76   1.376       .  A
C75        C1348   1.441       .  S
C76          C77   1.392       .  A
C76          H80   1.087       .  S
C77          C78   1.441       .  A
C77        C1201   1.498       .  S
C78          H81   1.082   1_655  S
C82          C83   1.396       .  A
C82          C87   1.429       .  A
C82        C1168   1.488       .  S
C83          C84   1.380       .  A
C83          H88   1.087       .  S
C84          C85   1.386       .  A
C84        C1336   1.455       .  S
C85          C86   1.396       .  A
C85          H89   1.085       .  S
C86          C87   1.429       .  A
C86        C1180   1.507       .  S
C87          H90   1.082   1_655  S
O91        Zr127   2.526   1_655  S
O91         C102   1.309       .  A
O92        Zr126   2.496       .  S
O92         C103   1.304       .  A
O93         Zr99   2.415       .  S
O93         C104   1.286       .  A
O94         Zr99   2.418   1_655  S
O94         C105   1.286       .  A
O95        Zr129   2.510       .  S
O95         C105   1.306       .  A
O96        Zr128   2.499   1_565  S
O96         C104   1.303       .  A
O97         Zr99   2.412       .  S
O97         C103   1.285       .  A
O98         Zr99   2.408   1_545  S
O98         C102   1.285   1_455  A
Zr99        O100   2.325   1_455  S
Zr99        O101   2.335   1_565  S
Zr99        O109   2.338   1_465  S
Zr99        O107   2.345       .  S
O100       Zr126   2.327   1_655  S
O100       Zr129   2.334       .  S
O101       Zr127   2.348       .  S
O101       Zr128   2.350       .  S
C102       C1381   1.502       .  S
C103       C1177   1.490   1_455  S
C104       C1096   1.488       .  S
C105       C1105   1.494       .  S
H106        O107   0.966       .  S
O107       Zr126   2.348       .  S
O107       Zr128   2.357   1_565  S
H108        O109   0.965       .  S
O109       Zr127   2.343   1_655  S
O109       Zr129   2.345   1_545  S
O110       Zr126   2.491       .  S
O110        C133   1.302       .  A
O111       Zr127   2.529       .  S
O111        C134   1.310       .  A
O112       Zr128   2.398   1_565  S
O112        C135   1.285       .  A
O113       Zr129   2.391       .  S
O113        C136   1.284       .  A
O114       Zr129   2.383   1_545  S
O114        C137   1.283       .  A
O115       Zr128   2.393       .  S
O115        C138   1.285       .  A
O116       Zr130   2.410       .  S
O116        C139   1.284       .  A
O117       Zr130   2.406   1_655  S
O117        C140   1.284   1_565  A
O118       Zr128   2.521       .  S
O118        C139   1.307   1_545  A
O119       Zr129   2.514       .  S
O119        C140   1.306   1_565  A
O120       Zr126   2.404       .  S
O120        C135   1.288       .  A
O121       Zr127   2.390       .  S
O121        C138   1.284       .  A
O122       Zr127   2.385   1_655  S
O122        C137   1.284       .  A
O123       Zr126   2.416   1_655  S
O123        C136   1.288       .  A
O124       Zr130   2.403       .  S
O124        C133   1.285       .  A
O125       Zr130   2.404   1_645  S
O125        C134   1.283   1_655  A
Zr126       O132   2.333       .  S
Zr126       O144   2.353   1_455  S
Zr127       O131   2.341   1_455  S
Zr127       O142   2.348       .  S
Zr128       O132   2.329   1_545  S
Zr128       O142   2.345       .  S
Zr129       O131   2.338   1_565  S
Zr129       O144   2.346       .  S
Zr130       O131   2.325   1_465  S
Zr130       O132   2.317       .  S
Zr130       O144   2.344   1_455  S
Zr130       O142   2.335   1_565  S
C133       C1228   1.493       .  S
C134       C1204   1.499   1_455  S
C135       C1120   1.445       .  S
C136       C1129   1.434       .  S
C137       C1141   1.423       .  S
C138       C1153   1.428       .  S
C139       C1084   1.498       .  S
C140       C1069   1.498   1_545  S
H141        O142   0.966       .  S
H143        O144   0.966       .  S
C145        C146   1.388       .  A
C145        C150   1.437       .  A
C145       C1261   1.494       .  S
C146        C147   1.374       .  A
C146        H151   1.087       .  S
C147        C148   1.378       .  A
C147       C1156   1.436       .  S
C148        C149   1.389       .  A
C148        H152   1.087       .  S
C149        C150   1.436       .  A
C149       C1057   1.496       .  S
C150        H153   1.082       .  S
C154        C155   1.388       .  A
C154        C159   1.440       .  A
C154       C1252   1.498       .  S
C155        C156   1.375       .  A
C155        H160   1.087       .  S
C156        C157   1.374       .  A
C156       C1144   1.432       .  S
C157        C158   1.387       .  A
C157        H161   1.087       .  S
C158        C159   1.439       .  A
C158       C1048   1.497       .  S
C159        H162   1.082       .  S
C163        C164   1.426       .  A
C163        C168   1.395       .  A
C163       C1033   1.487       .  S
C164        C165   1.426       .  A
C164        H169   1.082       .  S
C165        C166   1.396       .  A
C165       C1276   1.490       .  S
C166        C167   1.385       .  A
C166        H170   1.087       .  S
C167        C168   1.381       .  A
C167       C1132   1.450       .  S
C168        H171   1.087       .  S
C172        C173   1.398       .  A
C172        C177   1.423       .  A
C172       C1240   1.488       .  S
C173        C174   1.390       .  A
C173        H178   1.086       .  S
C174        C175   1.390       .  A
C174       C1117   1.466       .  S
C175        C176   1.396       .  A
C175        H179   1.085       .  S
C176        C177   1.423       .  A
C176       C1021   1.488       .  S
C177        H180   1.082       .  S
C181        C182   1.436       .  A
C181        C186   1.389   1_565  A
C181        C997   1.493       .  S
C182        C183   1.436       .  A
C182        H187   1.082       .  S
C183        C184   1.390   1_565  A
C183       C1108   1.494       .  S
C184        C185   1.376       .  A
C184        H188   1.087       .  S
C185        C186   1.374       .  A
C185       C1012   1.430       .  S
C186        H189   1.087       .  S
O190       Zr226   2.524       .  S
O190        C201   1.308       .  A
O191       Zr225   2.526       .  S
O191        C202   1.309       .  A
O192       Zr198   2.396       .  S
O192        C203   1.283       .  A
O193       Zr198   2.421       .  S
O193        C204   1.288       .  A
O194       Zr228   2.499       .  S
O194        C204   1.303       .  A
O195       Zr227   2.500       .  S
O195        C203   1.304       .  A
O196       Zr198   2.401       .  S
O196        C202   1.282       .  A
O197       Zr198   2.404       .  S
O197        C201   1.283       .  A
Zr198       O199   2.329       .  S
Zr198       O200   2.340       .  S
Zr198       O208   2.327       .  S
Zr198       O206   2.343       .  S
O199       Zr225   2.338       .  S
O199       Zr228   2.346       .  S
O200       Zr226   2.339       .  S
O200       Zr227   2.357       .  S
C201       C1060   1.496       .  S
C202       C1045   1.496       .  S
C203        C937   1.483       .  S
C204        C913   1.500       .  S
H205        O206   0.966       .  S
O206       Zr225   2.335       .  S
O206       Zr227   2.358       .  S
H207        O208   0.965       .  S
O208       Zr226   2.336       .  S
O208       Zr228   2.352       .  S
O209       Zr225   2.500   1_565  S
O209        C232   1.304       .  A
O210       Zr226   2.499   1_565  S
O210        C233   1.303       .  A
O211       Zr227   2.402   1_565  S
O211        C234   1.286       .  A
O212       Zr228   2.396       .  S
O212        C235   1.285       .  A
O213       Zr228   2.370       .  S
O213        C236   1.281       .  A
O214       Zr227   2.403   1_565  S
O214        C237   1.286       .  A
O215       Zr229   2.395       .  S
O215        C238   1.281       .  A
O216       Zr229   2.395       .  S
O216        C239   1.281       .  A
O217       Zr227   2.528   1_565  S
O217        C238   1.309       .  A
O218       Zr228   2.531   1_565  S
O218        C239   1.309       .  A
O219       Zr225   2.395   1_565  S
O219        C234   1.286       .  A
O220       Zr226   2.404       .  S
O220        C237   1.287   1_545  A
O221       Zr226   2.396       .  S
O221        C236   1.286       .  A
O222       Zr225   2.392       .  S
O222        C235   1.284       .  A
O223       Zr229   2.408       .  S
O223        C232   1.286       .  A
O224       Zr229   2.417       .  S
O224        C233   1.287       .  A
Zr225       O231   2.340   1_545  S
Zr225       O243   2.355   1_545  S
Zr226       O230   2.349   1_545  S
Zr226       O241   2.352   1_545  S
Zr227       O231   2.329   1_545  S
Zr227       O241   2.344   1_545  S
Zr228       O230   2.332   1_545  S
Zr228       O243   2.335   1_545  S
Zr229       O230   2.321       .  S
Zr229       O231   2.325       .  S
Zr229       O243   2.330       .  S
Zr229       O241   2.327       .  S
C232       C1036   1.496       .  S
C233       C1024   1.498       .  S
C234        C976   1.443       .  S
C235       C1009   1.422       .  S
C236        C964   1.424       .  S
C237        C985   1.438       .  S
C238        C952   1.495       .  S
C239        C928   1.496       .  S
H240        O241   0.965       .  S
H242        O243   0.965       .  S
C244        C245   1.431       .  A
C244        C249   1.394       .  A
C244        C901   1.496       .  S
C245        C246   1.432       .  A
C245        H250   1.082   1_565  S
C246        C247   1.393       .  A
C246       C1081   1.494       .  S
C247        C248   1.383       .  A
C247        H251   1.087       .  S
C248        C249   1.385       .  A
C248        C988   1.452       .  S
C249        H252   1.086       .  S
C253        C254   1.429   1_565  A
C253        C258   1.393       .  A
C253        C889   1.495   1_565  S
C254        C255   1.430   1_545  A
C254        H259   1.082       .  S
C255        C256   1.397       .  A
C255       C1072   1.495       .  S
C256        C257   1.386       .  A
C256        H260   1.086       .  S
C257        C258   1.388       .  A
C257        C973   1.460       .  S
C258        H261   1.086       .  S
C262        C263   1.434       .  A
C262        C267   1.390       .  A
C262        C877   1.489       .  S
C263        C264   1.434       .  A
C263        H268   1.082   1_565  S
C264        C265   1.387       .  A
C264       C1093   1.491       .  S
C265        C266   1.369       .  A
C265        H269   1.088       .  S
C266        C267   1.375       .  A
C266        C961   1.432       .  S
C267        H270   1.087       .  S
O271       Zr307   2.519       .  S
O271        C282   1.307       .  A
O272       Zr306   2.525       .  S
O272        C283   1.308       .  A
O273       Zr279   2.418   1_565  S
O273        C284   1.286       .  A
O274       Zr279   2.401   1_554  S
O274        C285   1.284       .  A
O275       Zr309   2.500       .  S
O275        C285   1.303       .  A
O276       Zr308   2.521   1_556  S
O276        C284   1.307       .  A
O277       Zr279   2.402       .  S
O277        C283   1.283       .  A
O278       Zr279   2.409   1_554  S
O278        C282   1.284       .  A
Zr279       O280   2.338       .  S
Zr279       O281   2.326   1_546  S
Zr279       O289   2.327   1_556  S
Zr279       O287   2.331   1_545  S
O280       Zr306   2.348       .  S
O280       Zr309   2.350   1_556  S
O281       Zr307   2.338   1_565  S
O281       Zr308   2.330       .  S
C282       C1000   1.493       .  S
C283        C892   1.506       .  S
C284        C808   1.505       .  S
C285        C781   1.491       .  S
H286        O287   0.966       .  S
O287       Zr306   2.354   1_565  S
O287       Zr308   2.355   1_556  S
H288        O289   0.965       .  S
O289       Zr307   2.340       .  S
O289       Zr309   2.339       .  S
O290       Zr306   2.522       .  S
O290        C313   1.308       .  A
O291       Zr307   2.514       .  S
O291        C314   1.307       .  A
O292       Zr308   2.357   1_556  S
O292        C315   1.274       .  A
O293       Zr309   2.402   1_556  S
O293        C316   1.287       .  A
O294       Zr309   2.410       .  S
O294        C317   1.288       .  A
O295       Zr308   2.401       .  S
O295        C318   1.286       .  A
O296       Zr310   2.415   1_565  S
O296        C319   1.285   1_554  A
O297       Zr310   2.410       .  S
O297        C320   1.285       .  A
O298       Zr308   2.518   1_556  S
O298        C319   1.307       .  A
O299       Zr309   2.501       .  S
O299        C320   1.304       .  A
O300       Zr306   2.413   1_565  S
O300        C315   1.290       .  A
O301       Zr307   2.394   1_565  S
O301        C318   1.285       .  A
O302       Zr307   2.400       .  S
O302        C317   1.287       .  A
O303       Zr306   2.415       .  S
O303        C316   1.289       .  A
O304       Zr310   2.414   1_556  S
O304        C313   1.285       .  A
O305       Zr310   2.397       .  S
O305        C314   1.282       .  A
Zr306       O312   2.345   1_545  S
Zr306       O324   2.347       .  S
Zr307       O311   2.349       .  S
Zr307       O322   2.349   1_545  S
Zr308       O312   2.337   1_554  S
Zr308       O322   2.344       .  S
Zr309       O311   2.347       .  S
Zr309       O324   2.343   1_554  S
Zr310       O311   2.339       .  S
Zr310       O312   2.324   1_544  S
Zr310       O324   2.327   1_554  S
Zr310       O322   2.342   1_545  S
C313        C904   1.499       .  S
C314        C880   1.487       .  S
C315        C844   1.446       .  S
C316        C832   1.451       .  S
C317        C865   1.445       .  S
C318        C853   1.431       .  S
C319        C793   1.499       .  S
C320        C817   1.493       .  S
H321        O322   0.966       .  S
H323        O324   0.965       .  S
C325        C326   1.396       .  A
C325        C330   1.429       .  A
C325        C916   1.496       .  S
C326        C327   1.387       .  A
C326        H331   1.085       .  S
C327        C328   1.384       .  A
C327        C868   1.459       .  S
C328        C329   1.395       .  A
C328        H332   1.086       .  S
C329        C330   1.429       .  A
C329        C769   1.494       .  S
C330        H333   1.082       .  S
C334        C335   1.393       .  A
C334        C339   1.437       .  A
C334        C925   1.498       .  S
C335        C336   1.377       .  A
C335        H340   1.087       .  S
C336        C337   1.378       .  A
C336        C856   1.447       .  S
C337        C338   1.397       .  A
C337        H341   1.086       .  S
C338        C339   1.438       .  A
C338        C760   1.505       .  S
C339        H342   1.082       .  S
C343        C344   1.384       .  A
C343        C348   1.433       .  A
C343        C949   1.493       .  S
C344        C345   1.379       .  A
C344        H349   1.085       .  S
C345        C346   1.389       .  A
C345        C841   1.450       .  S
C346        C347   1.390       .  A
C346        H350   1.086       .  S
C347        C348   1.435       .  A
C347        C745   1.499       .  S
C348        H351   1.082       .  S
C352        C353   1.393       .  A
C352        C357   1.419       .  A
C352        C940   1.481       .  S
C353        C354   1.391       .  A
C353        H358   1.084       .  S
C354        C355   1.389       .  A
C354        C829   1.470       .  S
C355        C356   1.397       .  A
C355        H359   1.086       .  S
C356        C357   1.420       .  A
C356        C733   1.482       .  S
C357        H360   1.082       .  S
O361       Zr397   2.518       .  S
O361        C372   1.308       .  A
O362       Zr396   2.515       .  S
O362        C373   1.306       .  A
O363       Zr369   2.408   1_655  S
O363        C374   1.285       .  A
O364       Zr369   2.406       .  S
O364        C375   1.285       .  A
O365       Zr399   2.509       .  S
O365        C375   1.306       .  A
O366       Zr398   2.504   1_554  S
O366        C374   1.304       .  A
O367       Zr369   2.422   1_556  S
O367        C373   1.286       .  A
O368       Zr369   2.403   1_655  S
O368        C372   1.284       .  A
Zr369       O370   2.323   1_554  S
Zr369       O371   2.334   1_455  S
Zr369       O379   2.338       .  S
Zr369       O377   2.336   1_454  S
O370       Zr396   2.333       .  S
O370       Zr399   2.344   1_556  S
O371       Zr397   2.341       .  S
O371       Zr398   2.339   1_554  S
C372       C1369   1.501       .  S
C373       C1192   1.499       .  S
C374        C649   1.495       .  S
C375        C673   1.497       .  S
H376        O377   0.966       .  S
O377       Zr396   2.348   1_655  S
O377       Zr398   2.348       .  S
H378        O379   0.966       .  S
O379       Zr397   2.348   1_455  S
O379       Zr399   2.356       .  S
O380       Zr396   2.507       .  S
O380        C403   1.305       .  A
O381       Zr397   2.512       .  S
O381        C404   1.306   1_655  A
O382       Zr398   2.394       .  S
O382        C405   1.285       .  A
O383       Zr399   2.389   1_556  S
O383        C406   1.285       .  A
O384       Zr399   2.396       .  S
O384        C407   1.286       .  A
O385       Zr398   2.391   1_554  S
O385        C408   1.285       .  A
O386       Zr400   2.418       .  S
O386        C409   1.287       .  A
O387       Zr400   2.404   1_455  S
O387        C410   1.283       .  A
O388       Zr398   2.508       .  S
O388        C409   1.305       .  A
O389       Zr399   2.535       .  S
O389        C410   1.311   1_554  A
O390       Zr396   2.387   1_655  S
O390        C405   1.283       .  A
O391       Zr397   2.403       .  S
O391        C408   1.287       .  A
O392       Zr397   2.389   1_455  S
O392        C407   1.285       .  A
O393       Zr396   2.391       .  S
O393        C406   1.285       .  A
O394       Zr400   2.387       .  S
O394        C403   1.281   1_655  A
O395       Zr400   2.400   1_554  S
O395        C404   1.284   1_655  A
Zr396       O402   2.342   1_455  S
Zr396       O414   2.349       .  S
Zr397       O401   2.347   1_655  S
Zr397       O412   2.340       .  S
Zr398       O402   2.340       .  S
Zr398       O412   2.343   1_556  S
Zr399       O401   2.334       .  S
Zr399       O414   2.338   1_554  S
Zr400       O401   2.327   1_656  S
Zr400       O402   2.327       .  S
Zr400       O414   2.333   1_655  S
Zr400       O412   2.320   1_556  S
C403       C1216   1.490   1_455  S
C404       C1165   1.498       .  S
C405        C688   1.427       .  S
C406        C697   1.431       .  S
C407        C709   1.431       .  S
C408        C724   1.435       .  S
C409        C637   1.500       .  S
C410        C661   1.501       .  S
H411        O412   0.965       .  S
H413        O414   0.965       .  S
C415        C416   1.394       .  A
C415        C420   1.432       .  A
C415       C1300   1.499       .  S
C416        C417   1.384       .  A
C416        H421   1.086       .  S
C417        C418   1.378       .  A
C417        C721   1.452       .  S
C418        C419   1.393       .  A
C418        H422   1.087       .  S
C419        C420   1.434       .  A
C419        C628   1.495       .  S
C420        H423   1.082       .  S
C424        C425   1.389       .  A
C424        C429   1.436       .  A
C424       C1288   1.492       .  S
C425        C426   1.375       .  A
C425        H430   1.087       .  S
C426        C427   1.377       .  A
C426        C712   1.438       .  S
C427        C428   1.390       .  A
C427        H431   1.087       .  S
C428        C429   1.435       .  A
C428        C616   1.496       .  S
C429        H432   1.082       .  S
C433        C434   1.391       .  A
C433        C438   1.434       .  A
C433       C1312   1.498       .  S
C434        C435   1.382       .  A
C434        H439   1.086       .  S
C435        C436   1.376       .  A
C435        C700   1.443       .  S
C436        C437   1.392       .  A
C436        H440   1.087       .  S
C437        C438   1.436       .  A
C437        C601   1.495       .  S
C438        H441   1.082       .  S
C442        C443   1.391       .  A
C442        C447   1.436       .  A
C442       C1324   1.498       .  S
C443        C444   1.380       .  A
C443        H448   1.087       .  S
C444        C445   1.378       .  A
C444        C685   1.442       .  S
C445        C446   1.391       .  A
C445        H449   1.087       .  S
C446        C447   1.436       .  A
C446        C589   1.497       .  S
C447        H450   1.082       .  S
C451        C452   1.427       .  A
C451        C456   1.397       .  A
C451        C676   1.490       .  S
C452        C453   1.425       .  A
C452        H457   1.082   1_554  S
C453        C454   1.393       .  A
C453        C820   1.489       .  S
C454        C455   1.387       .  A
C454        H458   1.085       .  S
C455        C456   1.389       .  A
C455        C577   1.465       .  S
C456        H459   1.086       .  S
O460       Zr496   2.515       .  S
O460        C471   1.306       .  A
O461       Zr495   2.507       .  S
O461        C472   1.305       .  A
O462       Zr468   2.402       .  S
O462        C473   1.283       .  A
O463       Zr468   2.396       .  S
O463        C474   1.282       .  A
O464       Zr498   2.524       .  S
O464        C474   1.309       .  A
O465       Zr497   2.518       .  S
O465        C473   1.307       .  A
O466       Zr468   2.419       .  S
O466        C472   1.287       .  A
O467       Zr468   2.400       .  S
O467        C471   1.282       .  A
Zr468       O469   2.328       .  S
Zr468       O470   2.338       .  S
Zr468       O478   2.328       .  S
Zr468       O476   2.319       .  S
O469       Zr495   2.344       .  S
O469       Zr498   2.347       .  S
O470       Zr496   2.346       .  S
O470       Zr497   2.350       .  S
C471        C772   1.489       .  S
C472        C757   1.515       .  S
C473        C625   1.495       .  S
C474        C613   1.493       .  S
H475        O476   0.965       .  S
O476       Zr495   2.349       .  S
O476       Zr497   2.353       .  S
H477        O478   0.965       .  S
O478       Zr496   2.339       .  S
O478       Zr498   2.341       .  S
O479       Zr495   2.524   1_556  S
O479        C502   1.308       .  A
O480       Zr496   2.505   1_556  S
O480        C503   1.305       .  A
O481       Zr497   2.408       .  S
O481        C504   1.288       .  A
O482       Zr498   2.385       .  S
O482        C505   1.283       .  A
O483       Zr498   2.400       .  S
O483        C506   1.287       .  A
O484       Zr497   2.408   1_556  S
O484        C507   1.287       .  A
O485       Zr499   2.398       .  S
O485        C508   1.281       .  A
O486       Zr499   2.399       .  S
O486        C509   1.282       .  A
O487       Zr497   2.528   1_556  S
O487        C508   1.309       .  A
O488       Zr498   2.532   1_556  S
O488        C509   1.310       .  A
O489       Zr495   2.403       .  S
O489        C504   1.286       .  A
O490       Zr496   2.402       .  S
O490        C507   1.287   1_554  A
O491       Zr496   2.413       .  S
O491        C506   1.288       .  A
O492       Zr495   2.404       .  S
O492        C505   1.287       .  A
O493       Zr499   2.409       .  S
O493        C502   1.284       .  A
O494       Zr499   2.392       .  S
O494        C503   1.282       .  A
Zr495       O501   2.348   1_554  S
Zr495       O513   2.345   1_554  S
Zr496       O500   2.352   1_554  S
Zr496       O511   2.347   1_554  S
Zr497       O501   2.351   1_554  S
Zr497       O511   2.339   1_554  S
Zr498       O500   2.341   1_554  S
Zr498       O513   2.349   1_554  S
Zr499       O500   2.340       .  S
Zr499       O501   2.334       .  S
Zr499       O513   2.322       .  S
Zr499       O511   2.326       .  S
C502        C748   1.504       .  S
C503        C736   1.493       .  S
C504        C565   1.433       .  S
C505        C553   1.421       .  S
C506        C580   1.446       .  S
C507        C541   1.441       .  S
C508        C592   1.494       .  S
C509        C604   1.498       .  S
H510        O511   0.965       .  S
H512        O513   0.965       .  S
C514        C515   1.430       .  A
C514        C519   1.396       .  A
C514        C805   1.495       .  S
C515        C516   1.430       .  A
C515        H520   1.082   1_554  S
C516        C517   1.394       .  A
C516        C640   1.495       .  S
C517        C518   1.386       .  A
C517        H521   1.087       .  S
C518        C519   1.387       .  A
C518        C568   1.453       .  S
C519        H522   1.086       .  S
C523        C524   1.442       .  A
C523        C528   1.391       .  A
C523        C796   1.504       .  S
C524        C525   1.440       .  A
C524        H529   1.082       .  S
C525        C526   1.387       .  A
C525        C664   1.498       .  S
C526        C527   1.371       .  A
C526        H530   1.088       .  S
C527        C528   1.374       .  A
C527        C556   1.425       .  S
C528        H531   1.087       .  S
C532        C533   1.424   1_556  A
C532        C537   1.395       .  A
C532        C784   1.485   1_556  S
C533        C534   1.423   1_554  A
C533        H538   1.082       .  S
C534        C535   1.394       .  A
C534        C652   1.485   1_556  S
C535        C536   1.385       .  A
C535        H539   1.086       .  S
C536        C537   1.385       .  A
C536        C544   1.457       .  S
C537        H540   1.087       .  S
C541        C542   1.402       .  A
C541        C546   1.403   1_556  A
C542        C543   1.391       .  A
C542        H551   1.082       .  S
C543        C544   1.405       .  A
C543        S547   1.804       .  S
C544        C545   1.407       .  A
C545        C546   1.382   1_556  A
C545        H552   1.084   1_556  S
C546        S548   1.808       .  S
S547        H550   1.406       .  S
S548        H549   1.407       .  S
C553        C554   1.395   1_554  A
C553        C558   1.401       .  A
C554        C555   1.380       .  A
C554        H563   1.080       .  S
C555        C556   1.401       .  A
C555        S559   1.807       .  S
C556        C557   1.398   1_556  A
C557        C558   1.380       .  A
C557        H564   1.085       .  S
C558        S560   1.800       .  S
S559        H562   1.403       .  S
S560        H561   1.404       .  S
C565        C566   1.404       .  A
C565        C570   1.401   1_554  A
C566        C567   1.392       .  A
C566        H575   1.085       .  S
C567        C568   1.403       .  A
C567        S571   1.803       .  S
C568        C569   1.408       .  A
C569        C570   1.380   1_554  A
C569        H576   1.085   1_554  S
C570        S572   1.810       .  S
S571        H574   1.406       .  S
S572        H573   1.403       .  S
C577        C578   1.409       .  A
C577        C582   1.408       .  A
C578        C579   1.382   1_554  A
C578        H587   1.082   1_554  S
C579        C580   1.403   1_556  A
C579        S583   1.808       .  S
C580        C581   1.402       .  A
C581        C582   1.393       .  A
C581        H588   1.082       .  S
C582        S584   1.805       .  S
S583        H586   1.407       .  S
S584        H585   1.406       .  S
C589        C590   1.409       .  A
C589        C594   1.418       .  A
C590        C591   1.414       .  A
C590        H599   1.084       .  S
C591        C592   1.420       .  A
C591        S595   1.803       .  S
C592        C593   1.404       .  A
C593        C594   1.407       .  A
C593        H600   1.084       .  S
C594        S596   1.803       .  S
S595        H598   1.403       .  S
S596        H597   1.407       .  S
C601        C602   1.407       .  A
C601        C606   1.419       .  A
C602        C603   1.412       .  A
C602        H611   1.084       .  S
C603        C604   1.419       .  A
C603        S607   1.798       .  S
C604        C605   1.406       .  A
C605        C606   1.407       .  A
C605        H612   1.084       .  S
C606        S608   1.803       .  S
S607        H610   1.403       .  S
S608        H609   1.407       .  S
C613        C614   1.402       .  A
C613        C618   1.424       .  A
C614        C615   1.407       .  A
C614        H623   1.084       .  S
C615        C616   1.421       .  A
C615        S619   1.804       .  S
C616        C617   1.404       .  A
C617        C618   1.411       .  A
C617        H624   1.084       .  S
C618        S620   1.807       .  S
S619        H622   1.407       .  S
S620        H621   1.401       .  S
C625        C626   1.405       .  A
C625        C630   1.417       .  A
C626        C627   1.413       .  A
C626        H635   1.084       .  S
C627        C628   1.422       .  A
C627        S631   1.801       .  S
C628        C629   1.407       .  A
C629        C630   1.405       .  A
C629        H636   1.084       .  S
C630        S632   1.802       .  S
S631        H634   1.405       .  S
S632        H633   1.406       .  S
C637        C638   1.409   1_556  A
C637        C642   1.418       .  A
C638        C639   1.404       .  A
C638        H647   1.083       .  S
C639        C640   1.410       .  A
C639        S643   1.800       .  S
C640        C641   1.412   1_554  A
C641        C642   1.415       .  A
C641        H648   1.084       .  S
C642        S644   1.805       .  S
S643        H646   1.407       .  S
S644        H645   1.403       .  S
C649        C650   1.403       .  A
C649        C654   1.420   1_554  A
C650        C651   1.408       .  A
C650        H659   1.080       .  S
C651        C652   1.419       .  A
C651        S655   1.802       .  S
C652        C653   1.400   1_554  A
C653        C654   1.402       .  A
C653        H660   1.084       .  S
C654        S656   1.796       .  S
S655        H658   1.406       .  S
S656        H657   1.407       .  S
C661        C662   1.404   1_556  A
C661        C666   1.422       .  A
C662        C663   1.411       .  A
C662        H671   1.081       .  S
C663        C664   1.421   1_554  A
C663        S667   1.803       .  S
C664        C665   1.407       .  A
C665        C666   1.413       .  A
C665        H672   1.084       .  S
C666        S668   1.805       .  S
S667        H670   1.407       .  S
S668        H669   1.401       .  S
C673        C674   1.411       .  A
C673        C678   1.415   1_554  A
C674        C675   1.404       .  A
C674        H683   1.084       .  S
C675        C676   1.409       .  A
C675        S679   1.802       .  S
C676        C677   1.412   1_554  A
C677        C678   1.410       .  A
C677        H684   1.083       .  S
C678        S680   1.803       .  S
S679        H682   1.406       .  S
S680        H681   1.403       .  S
C685        C686   1.404       .  A
C685        C690   1.403       .  A
C686        C687   1.380       .  A
C686        H695   1.085       .  S
C687        C688   1.401       .  A
C687        S691   1.808       .  S
C688        C689   1.401       .  A
C689        C690   1.385       .  A
C689        H696   1.085       .  S
C690        S692   1.804       .  S
S691        H694   1.407       .  S
S692        H693   1.406       .  S
C697        C698   1.402       .  A
C697        C702   1.402       .  A
C698        C699   1.384       .  A
C698        H707   1.084       .  S
C699        C700   1.402       .  A
C699        S703   1.804       .  S
C700        C701   1.405       .  A
C701        C702   1.379       .  A
C701        H708   1.085       .  S
C702        S704   1.806       .  S
S703        H706   1.407       .  S
S704        H705   1.405       .  S
C709        C710   1.400       .  A
C709        C714   1.407       .  A
C710        C711   1.382       .  A
C710        H719   1.085       .  S
C711        C712   1.406       .  A
C711        S715   1.807       .  S
C712        C713   1.398       .  A
C713        C714   1.380       .  A
C713        H720   1.085       .  S
C714        S716   1.806       .  S
S715        H718   1.406       .  S
S716        H717   1.403       .  S
C721        C722   1.406       .  A
C721        C726   1.405       .  A
C722        C723   1.378       .  A
C722        H731   1.084       .  S
C723        C724   1.403       .  A
C723        S727   1.805       .  S
C724        C725   1.402       .  A
C725        C726   1.387       .  A
C725        H732   1.085       .  S
C726        S728   1.805       .  S
S727        H730   1.405       .  S
S728        H729   1.407       .  S
C733        C734   1.411       .  A
C733        C738   1.405       .  A
C734        C735   1.408       .  A
C734        H743   1.084       .  S
C735        C736   1.413       .  A
C735        S739   1.803       .  S
C736        C737   1.413       .  A
C737        C738   1.400       .  A
C737        H744   1.084       .  S
C738        S740   1.802       .  S
S739        H742   1.406       .  S
S740        H741   1.406       .  S
C745        C746   1.414       .  A
C745        C750   1.414       .  A
C746        C747   1.410       .  A
C746        H755   1.084       .  S
C747        C748   1.412       .  A
C747        S751   1.797       .  S
C748        C749   1.413       .  A
C749        C750   1.413       .  A
C749        H756   1.082       .  S
C750        S752   1.801       .  S
S751        H754   1.405       .  S
S752        H753   1.406       .  S
C757        C758   1.418       .  A
C757        C762   1.415       .  A
C758        C759   1.411       .  A
C758        H767   1.082       .  S
C759        C760   1.412       .  A
C759        S763   1.806       .  S
C760        C761   1.417       .  A
C761        C762   1.408       .  A
C761        H768   1.084       .  S
C762        S764   1.801       .  S
S763        H766   1.400       .  S
S764        H765   1.401       .  S
C769        C770   1.407       .  A
C769        C774   1.418       .  A
C770        C771   1.411       .  A
C770        H779   1.084       .  S
C771        C772   1.418       .  A
C771        S775   1.801       .  S
C772        C773   1.403       .  A
C773        C774   1.404       .  A
C773        H780   1.084       .  S
C774        S776   1.803       .  S
S775        H778   1.403       .  S
S776        H777   1.407       .  S
C781        C782   1.409   1_554  A
C781        C786   1.413       .  A
C782        C783   1.402       .  A
C782        H791   1.084       .  S
C783        C784   1.410   1_556  A
C783        S787   1.802       .  S
C784        C785   1.411       .  A
C785        C786   1.408       .  A
C785        H792   1.084       .  S
C786        S788   1.800       .  S
S787        H790   1.407       .  S
S788        H789   1.405       .  S
C793        C794   1.408   1_556  A
C793        C798   1.415       .  A
C794        C795   1.412       .  A
C794        H803   1.079       .  S
C795        C796   1.416   1_554  A
C795        S799   1.800       .  S
C796        C797   1.416       .  A
C797        C798   1.411       .  A
C797        H804   1.084       .  S
C798        S800   1.807       .  S
S799        H802   1.403       .  S
S800        H801   1.403       .  S
C805        C806   1.408   1_554  A
C805        C810   1.413       .  A
C806        C807   1.413       .  A
C806        H815   1.084       .  S
C807        C808   1.420       .  A
C807        S811   1.800       .  S
C808        C809   1.410   1_556  A
C809        C810   1.406       .  A
C809        H816   1.084       .  S
C810        S812   1.803       .  S
S811        H814   1.401       .  S
S812        H813   1.407       .  S
C817        C818   1.409       .  A
C817        C822   1.415   1_554  A
C818        C819   1.404       .  A
C818        H827   1.084       .  S
C819        C820   1.412       .  A
C819        S823   1.803       .  S
C820        C821   1.411   1_554  A
C821        C822   1.410       .  A
C821        H828   1.084       .  S
C822        S824   1.804       .  S
S823        H826   1.406       .  S
S824        H825   1.404       .  S
C829        C830   1.410       .  A
C829        C834   1.408       .  A
C830        C831   1.383       .  A
C830        H839   1.082       .  S
C831        C832   1.405       .  A
C831        S835   1.808       .  S
C832        C833   1.403       .  A
C833        C834   1.392       .  A
C833        H840   1.081       .  S
C834        S836   1.805       .  S
S835        H838   1.407       .  S
S836        H837   1.407       .  S
C841        C842   1.395       .  A
C841        C846   1.410       .  A
C842        C843   1.373       .  A
C842        H851   1.084       .  S
C843        C844   1.419       .  A
C843        S847   1.810       .  S
C844        C845   1.400       .  A
C845        C846   1.385       .  A
C845        H852   1.083       .  S
C846        S848   1.809       .  S
S847        H850   1.394       .  S
S848        H849   1.407       .  S
C853        C854   1.389       .  A
C853        C858   1.410       .  A
C854        C855   1.378       .  A
C854        H863   1.085       .  S
C855        C856   1.417       .  A
C855        S859   1.806       .  S
C856        C857   1.395       .  A
C857        C858   1.389       .  A
C857        H864   1.084       .  S
C858        S860   1.801       .  S
S859        H862   1.403       .  S
S860        H861   1.405       .  S
C865        C866   1.404       .  A
C865        C870   1.404       .  A
C866        C867   1.390       .  A
C866        H875   1.084       .  S
C867        C868   1.406       .  A
C867        S871   1.804       .  S
C868        C869   1.408       .  A
C869        C870   1.382       .  A
C869        H876   1.085       .  S
C870        S872   1.807       .  S
S871        H874   1.406       .  S
S872        H873   1.407       .  S
C877        C878   1.409       .  A
C877        C882   1.418   1_565  A
C878        C879   1.406       .  A
C878        H887   1.084       .  S
C879        C880   1.413   1_565  A
C879        S883   1.803       .  S
C880        C881   1.406       .  A
C881        C882   1.410       .  A
C881        H888   1.084       .  S
C882        S884   1.802       .  S
S883        H886   1.404       .  S
S884        H885   1.406       .  S
C889        C890   1.399   1_545  A
C889        C894   1.421       .  A
C890        C891   1.404       .  A
C890        H899   1.084       .  S
C891        C892   1.426   1_565  A
C891        S895   1.802       .  S
C892        C893   1.406       .  A
C893        C894   1.414       .  A
C893        H900   1.083       .  S
C894        S896   1.802       .  S
S895        H898   1.403       .  S
S896        H897   1.406       .  S
C901        C902   1.409   1_565  A
C901        C906   1.415       .  A
C902        C903   1.414       .  A
C902        H911   1.084       .  S
C903        C904   1.417       .  A
C903        S907   1.797       .  S
C904        C905   1.404   1_545  A
C905        C906   1.405       .  A
C905        H912   1.079       .  S
C906        S908   1.803       .  S
S907        H910   1.404       .  S
S908        H909   1.407       .  S
C913        C914   1.410       .  A
C913        C918   1.413       .  A
C914        C915   1.406       .  A
C914        H923   1.082       .  S
C915        C916   1.411       .  A
C915        S919   1.801       .  S
C916        C917   1.414       .  A
C917        C918   1.410       .  A
C917        H924   1.084       .  S
C918        S920   1.799       .  S
S919        H922   1.404       .  S
S920        H921   1.406       .  S
C925        C926   1.409       .  A
C925        C930   1.418       .  A
C926        C927   1.416       .  A
C926        H935   1.083       .  S
C927        C928   1.420       .  A
C927        S931   1.802       .  S
C928        C929   1.404       .  A
C929        C930   1.404       .  A
C929        H936   1.084       .  S
C930        S932   1.803       .  S
S931        H934   1.404       .  S
S932        H933   1.407       .  S
C937        C938   1.406       .  A
C937        C942   1.413       .  A
C938        C939   1.398       .  A
C938        H947   1.085       .  S
C939        C940   1.412       .  A
C939        S943   1.804       .  S
C940        C941   1.409       .  A
C941        C942   1.409       .  A
C941        H948   1.084       .  S
C942        S944   1.803       .  S
S943        H946   1.406       .  S
S944        H945   1.406       .  S
C949        C950   1.406       .  A
C949        C954   1.421       .  A
C950        C951   1.413       .  A
C950        H959   1.084       .  S
C951        C952   1.422       .  A
C951        S955   1.803       .  S
C952        C953   1.401       .  A
C953        C954   1.407       .  A
C953        H960   1.083       .  S
C954        S956   1.804       .  S
S955        H958   1.402       .  S
S956        H957   1.406       .  S
C961        C962   1.401   1_565  A
C961        C966   1.402       .  A
C962        C963   1.376       .  A
C962        H971   1.085       .  S
C963        C964   1.402       .  A
C963        S967   1.804       .  S
C964        C965   1.399   1_545  A
C965        C966   1.379       .  A
C965        H972   1.082       .  S
C966        S968   1.806       .  S
S967        H970   1.404       .  S
S968        H969   1.406       .  S
C973        C974   1.409       .  A
C973        C978   1.406       .  A
C974        C975   1.381   1_565  A
C974        H983   1.084   1_565  S
C975        C976   1.403   1_545  A
C975        S979   1.808       .  S
C976        C977   1.403       .  A
C977        C978   1.390       .  A
C977        H984   1.084       .  S
C978        S980   1.803       .  S
S979        H982   1.407       .  S
S980        H981   1.407       .  S
C985        C986   1.403       .  A
C985        C990   1.402   1_565  A
C986        C987   1.389       .  A
C986        H995   1.085       .  S
C987        C988   1.403       .  A
C987        S991   1.802       .  S
C988        C989   1.406       .  A
C989        C990   1.382   1_565  A
C989        H996   1.085   1_565  S
C990        S992   1.807       .  S
S991        H994   1.406       .  S
S992        H993   1.407       .  S
C997        C998   1.408   1_565  A
C997       C1002   1.418       .  A
C998        C999   1.410       .  A
C998       H1007   1.084       .  S
C999       C1000   1.418       .  A
C999       S1003   1.805       .  S
C1000      C1001   1.405   1_545  A
C1001      C1002   1.410       .  A
C1001      H1008   1.083       .  S
C1002      S1004   1.802       .  S
S1003      H1006   1.402       .  S
S1004      H1005   1.407       .  S
C1009      C1010   1.395       .  A
C1009      C1014   1.403   1_545  A
C1010      C1011   1.383       .  A
C1010      H1019   1.082       .  S
C1011      C1012   1.404       .  A
C1011      S1015   1.805       .  S
C1012      C1013   1.397   1_545  A
C1013      C1014   1.381       .  A
C1013      H1020   1.085       .  S
C1014      S1016   1.804       .  S
S1015      H1018   1.405       .  S
S1016      H1017   1.406       .  S
C1021      C1022   1.398       .  A
C1021      C1026   1.419       .  A
C1022      C1023   1.401       .  A
C1022      H1031   1.085       .  S
C1023      C1024   1.420       .  A
C1023      S1027   1.797       .  S
C1024      C1025   1.405       .  A
C1025      C1026   1.412       .  A
C1025      H1032   1.084       .  S
C1026      S1028   1.802       .  S
S1027      H1030   1.407       .  S
S1028      H1029   1.406       .  S
C1033      C1034   1.411       .  A
C1033      C1038   1.409       .  A
C1034      C1035   1.408       .  A
C1034      H1043   1.084       .  S
C1035      C1036   1.416       .  A
C1035      S1039   1.803       .  S
C1036      C1037   1.412       .  A
C1037      C1038   1.403       .  A
C1037      H1044   1.084       .  S
C1038      S1040   1.802       .  S
S1039      H1042   1.401       .  S
S1040      H1041   1.406       .  S
C1045      C1046   1.406       .  A
C1045      C1050   1.419       .  A
C1046      C1047   1.412       .  A
C1046      H1055   1.084       .  S
C1047      C1048   1.419       .  A
C1047      S1051   1.801       .  S
C1048      C1049   1.410       .  A
C1049      C1050   1.411       .  A
C1049      H1056   1.084       .  S
C1050      S1052   1.806       .  S
S1051      H1054   1.407       .  S
S1052      H1053   1.402       .  S
C1057      C1058   1.406       .  A
C1057      C1062   1.420       .  A
C1058      C1059   1.413       .  A
C1058      H1067   1.084       .  S
C1059      C1060   1.423       .  A
C1059      S1063   1.808       .  S
C1060      C1061   1.404       .  A
C1061      C1062   1.409       .  A
C1061      H1068   1.084       .  S
C1062      S1064   1.803       .  S
S1063      H1066   1.399       .  S
S1064      H1065   1.407       .  S
C1069      C1070   1.408       .  A
C1069      C1074   1.417   1_565  A
C1070      C1071   1.404       .  A
C1070      H1079   1.084       .  S
C1071      C1072   1.414       .  A
C1071      S1075   1.803       .  S
C1072      C1073   1.410   1_565  A
C1073      C1074   1.414       .  A
C1073      H1080   1.084       .  S
C1074      S1076   1.800       .  S
S1075      H1078   1.407       .  S
S1076      H1077   1.403       .  S
C1081      C1082   1.408   1_565  A
C1081      C1086   1.416       .  A
C1082      C1083   1.411       .  A
C1082      H1091   1.084       .  S
C1083      C1084   1.417   1_545  A
C1083      S1087   1.797       .  S
C1084      C1085   1.407       .  A
C1085      C1086   1.407       .  A
C1085      H1092   1.084       .  S
C1086      S1088   1.803       .  S
S1087      H1090   1.402       .  S
S1088      H1089   1.407       .  S
C1093      C1094   1.414       .  A
C1093      C1098   1.418   1_565  A
C1094      C1095   1.408       .  A
C1094      H1103   1.084       .  S
C1095      C1096   1.410       .  A
C1095      S1099   1.806       .  S
C1096      C1097   1.403   1_565  A
C1097      C1098   1.409       .  A
C1097      H1104   1.081       .  S
C1098      S1100   1.801       .  S
S1099      H1102   1.404       .  S
S1100      H1101   1.405       .  S
C1105      C1106   1.405       .  A
C1105      C1110   1.415   1_565  A
C1106      C1107   1.411       .  A
C1106      H1115   1.084       .  S
C1107      C1108   1.419       .  A
C1107      S1111   1.802       .  S
C1108      C1109   1.408   1_565  A
C1109      C1110   1.409       .  A
C1109      H1116   1.084       .  S
C1110      S1112   1.801       .  S
S1111      H1114   1.406       .  S
S1112      H1113   1.405       .  S
C1117      C1118   1.409       .  A
C1117      C1122   1.408       .  A
C1118      C1119   1.379       .  A
C1118      H1127   1.080       .  S
C1119      C1120   1.401       .  A
C1119      S1123   1.808       .  S
C1120      C1121   1.406       .  A
C1121      C1122   1.393       .  A
C1121      H1128   1.084       .  S
C1122      S1124   1.804       .  S
S1123      H1126   1.407       .  S
S1124      H1125   1.406       .  S
C1129      C1130   1.405       .  A
C1129      C1134   1.401       .  A
C1130      C1131   1.393       .  A
C1130      H1139   1.084       .  S
C1131      C1132   1.399       .  A
C1131      S1135   1.802       .  S
C1132      C1133   1.405       .  A
C1133      C1134   1.382       .  A
C1133      H1140   1.083       .  S
C1134      S1136   1.808       .  S
S1135      H1138   1.404       .  S
S1136      H1137   1.405       .  S
C1141      C1142   1.397       .  A
C1141      C1146   1.406       .  A
C1142      C1143   1.379       .  A
C1142      H1151   1.085       .  S
C1143      C1144   1.406       .  A
C1143      S1147   1.806       .  S
C1144      C1145   1.398       .  A
C1145      C1146   1.378       .  A
C1145      H1152   1.085       .  S
C1146      S1148   1.808       .  S
S1147      H1150   1.406       .  S
S1148      H1149   1.406       .  S
C1153      C1154   1.395       .  A
C1153      C1158   1.404       .  A
C1154      C1155   1.379       .  A
C1154      H1163   1.080       .  S
C1155      C1156   1.404       .  A
C1155      S1159   1.806       .  S
C1156      C1157   1.400       .  A
C1157      C1158   1.382       .  A
C1157      H1164   1.085       .  S
C1158      S1160   1.804       .  S
S1159      H1162   1.407       .  S
S1160      H1161   1.404       .  S
C1165      C1166   1.414   1_455  A
C1165      C1170   1.414       .  A
C1166      C1167   1.405       .  A
C1166      H1175   1.083       .  S
C1167      C1168   1.404       .  A
C1167      S1171   1.798       .  S
C1168      C1169   1.413   1_655  A
C1169      C1170   1.408       .  A
C1169      H1176   1.084       .  S
C1170      S1172   1.802       .  S
S1171      H1174   1.406       .  S
S1172      H1173   1.403       .  S
C1177      C1178   1.396       .  A
C1177      C1182   1.426   1_655  A
C1178      C1179   1.399       .  A
C1178      H1187   1.083       .  S
C1179      C1180   1.423       .  A
C1179      S1183   1.805       .  S
C1180      C1181   1.403   1_655  A
C1181      C1182   1.412       .  A
C1181      H1188   1.083       .  S
C1182      S1184   1.799       .  S
S1183      H1186   1.407       .  S
S1184      H1185   1.396       .  S
C1189      C1190   1.408   1_655  A
C1189      C1194   1.423       .  A
C1190      C1191   1.418       .  A
C1190      H1199   1.083       .  S
C1191      C1192   1.423       .  A
C1191      S1195   1.805       .  S
C1192      C1193   1.400   1_455  A
C1193      C1194   1.405       .  A
C1193      H1200   1.084       .  S
C1194      S1196   1.805       .  S
S1195      H1198   1.402       .  S
S1196      H1197   1.407       .  S
C1201      C1202   1.413   1_655  A
C1201      C1206   1.414       .  A
C1202      C1203   1.413       .  A
C1202      H1211   1.084       .  S
C1203      C1204   1.417   1_455  A
C1203      S1207   1.807       .  S
C1204      C1205   1.411       .  A
C1205      C1206   1.410       .  A
C1205      H1212   1.084       .  S
C1206      S1208   1.802       .  S
S1207      H1210   1.400       .  S
S1208      H1209   1.407       .  S
C1213      C1214   1.399   1_455  A
C1213      C1218   1.420       .  A
C1214      C1215   1.397       .  A
C1214      H1223   1.085       .  S
C1215      C1216   1.422       .  A
C1215      S1219   1.803       .  S
C1216      C1217   1.403   1_655  A
C1217      C1218   1.409       .  A
C1217      H1224   1.084       .  S
C1218      S1220   1.801       .  S
S1219      H1222   1.406       .  S
S1220      H1221   1.404       .  S
C1225      C1226   1.409       .  A
C1225      C1230   1.408   1_455  A
C1226      C1227   1.406       .  A
C1226      H1235   1.084       .  S
C1227      C1228   1.414       .  A
C1227      S1231   1.799       .  S
C1228      C1229   1.410   1_455  A
C1229      C1230   1.400       .  A
C1229      H1236   1.084       .  S
C1230      S1232   1.802       .  S
S1231      H1234   1.405       .  S
S1232      H1233   1.405       .  S
C1237      C1238   1.412       .  A
C1237      C1242   1.415       .  A
C1238      C1239   1.400       .  A
C1238      H1247   1.084       .  S
C1239      C1240   1.408       .  A
C1239      S1243   1.803       .  S
C1240      C1241   1.412       .  A
C1241      C1242   1.412       .  A
C1241      H1248   1.084       .  S
C1242      S1244   1.803       .  S
S1243      H1246   1.407       .  S
S1244      H1245   1.405       .  S
C1249      C1250   1.404       .  A
C1249      C1254   1.418       .  A
C1250      C1251   1.410       .  A
C1250      H1259   1.081       .  S
C1251      C1252   1.420       .  A
C1251      S1255   1.803       .  S
C1252      C1253   1.410       .  A
C1253      C1254   1.413       .  A
C1253      H1260   1.084       .  S
C1254      S1256   1.803       .  S
S1255      H1258   1.407       .  S
S1256      H1257   1.405       .  S
C1261      C1262   1.410       .  A
C1261      C1266   1.415       .  A
C1262      C1263   1.410       .  A
C1262      H1271   1.084       .  S
C1263      C1264   1.416       .  A
C1263      S1267   1.800       .  S
C1264      C1265   1.408       .  A
C1265      C1266   1.412       .  A
C1265      H1272   1.083       .  S
C1266      S1268   1.799       .  S
S1267      H1270   1.403       .  S
S1268      H1269   1.406       .  S
C1273      C1274   1.404       .  A
C1273      C1278   1.423       .  A
C1274      C1275   1.409       .  A
C1274      H1283   1.080       .  S
C1275      C1276   1.417       .  A
C1275      S1279   1.798       .  S
C1276      C1277   1.400       .  A
C1277      C1278   1.405       .  A
C1277      H1284   1.084       .  S
C1278      S1280   1.796       .  S
S1279      H1282   1.406       .  S
S1280      H1281   1.405       .  S
C1285      C1286   1.404       .  A
C1285      C1290   1.416       .  A
C1286      C1287   1.406       .  A
C1286      H1295   1.078       .  S
C1287      C1288   1.415       .  A
C1287      S1291   1.802       .  S
C1288      C1289   1.412       .  A
C1289      C1290   1.412       .  A
C1289      H1296   1.084       .  S
C1290      S1292   1.804       .  S
S1291      H1294   1.406       .  S
S1292      H1293   1.403       .  S
C1297      C1298   1.398       .  A
C1297      C1302   1.419       .  A
C1298      C1299   1.400       .  A
C1298      H1307   1.082       .  S
C1299      C1300   1.420       .  A
C1299      S1303   1.806       .  S
C1300      C1301   1.409       .  A
C1301      C1302   1.417       .  A
C1301      H1308   1.083       .  S
C1302      S1304   1.802       .  S
S1303      H1306   1.407       .  S
S1304      H1305   1.405       .  S
C1309      C1310   1.404       .  A
C1309      C1314   1.420       .  A
C1310      C1311   1.404       .  A
C1310      H1319   1.084       .  S
C1311      C1312   1.416       .  A
C1311      S1315   1.800       .  S
C1312      C1313   1.410       .  A
C1313      C1314   1.418       .  A
C1313      H1320   1.083       .  S
C1314      S1316   1.803       .  S
S1315      H1318   1.407       .  S
S1316      H1317   1.404       .  S
C1321      C1322   1.404       .  A
C1321      C1326   1.417       .  A
C1322      C1323   1.412       .  A
C1322      H1331   1.079       .  S
C1323      C1324   1.420       .  A
C1323      S1327   1.802       .  S
C1324      C1325   1.408       .  A
C1325      C1326   1.410       .  A
C1325      H1332   1.084       .  S
C1326      S1328   1.803       .  S
S1327      H1330   1.406       .  S
S1328      H1329   1.406       .  S
C1333      C1334   1.402       .  A
C1333      C1338   1.405   1_655  A
C1334      C1335   1.389       .  A
C1334      H1343   1.085       .  S
C1335      C1336   1.406       .  A
C1335      S1339   1.803       .  S
C1336      C1337   1.404       .  A
C1337      C1338   1.382   1_655  A
C1337      H1344   1.083   1_655  S
C1338      S1340   1.806       .  S
S1339      H1342   1.407       .  S
S1340      H1341   1.406       .  S
C1345      C1346   1.398   1_655  A
C1345      C1350   1.406       .  A
C1346      C1347   1.381       .  A
C1346      H1355   1.084       .  S
C1347      C1348   1.409   1_455  A
C1347      S1351   1.810       .  S
C1348      C1349   1.398       .  A
C1349      C1350   1.380       .  A
C1349      H1356   1.085       .  S
C1350      S1352   1.797       .  S
S1351      H1354   1.407       .  S
S1352      H1353   1.407       .  S
C1357      C1358   1.402       .  A
C1357      C1362   1.407       .  A
C1358      C1359   1.395       .  A
C1358      H1367   1.080       .  S
C1359      C1360   1.409       .  A
C1359      S1363   1.800       .  S
C1360      C1361   1.407       .  A
C1361      C1362   1.379       .  A
C1361      H1368   1.081       .  S
C1362      S1364   1.808   1_655  S
S1363      H1366   1.407       .  S
S1364      H1365   1.406       .  S
C1369      C1370   1.412   1_655  A
C1369      C1374   1.414       .  A
C1370      C1371   1.407       .  A
C1370      H1379   1.084       .  S
C1371      C1372   1.412   1_455  A
C1371      S1375   1.801       .  S
C1372      C1373   1.415       .  A
C1373      C1374   1.411       .  A
C1373      H1380   1.084       .  S
C1374      S1376   1.802       .  S
S1375      H1378   1.405       .  S
S1376      H1377   1.405       .  S
C1381      C1382   1.405       .  A
C1381      C1386   1.422   1_655  A
C1382      C1383   1.413       .  A
C1382      H1391   1.083       .  S
C1383      C1384   1.418       .  A
C1383      S1387   1.800       .  S
C1384      C1385   1.402   1_655  A
C1385      C1386   1.406       .  A
C1385      H1392   1.084       .  S
C1386      S1388   1.797       .  S
S1387      H1390   1.406       .  S
S1388      H1389   1.402       .  S
C1393      C1394   1.400       .  A
C1393      C1398   1.412   1_455  A
C1394      C1395   1.389       .  A
C1394      H1403   1.084       .  S
C1395      C1396   1.410       .  A
C1395      S1399   1.803       .  S
C1396      C1397   1.391   1_455  A
C1397      C1398   1.373       .  A
C1397      H1404   1.086       .  S
C1398      S1400   1.800       .  S
S1399      H1402   1.402       .  S
S1400      H1401   1.407       .  S
