geometry optimzed in LAMMPS
_audit_creation_date              2020-11-30 
_audit_creation_method            'lammps2cif' 
_symmetry_space_group_name_H-M    'P1' 
_symmetry_Int_Tables_number       1 
_symmetry_cell_setting            triclinic 
loop_ 
_symmetry_equiv_pos_as_xyz 
  x,y,z 
_cell_length_a                    29.286117961727648 
_cell_length_b                    27.627818783140572 
_cell_length_c                    36.3186905714587 
_cell_angle_alpha                 89.1457427500623 
_cell_angle_beta                  89.99538861372062 
_cell_angle_gamma                 89.97273668405337 
loop_ 
_atom_site_label 
_atom_site_type_symbol 
_atom_site_fract_x 
_atom_site_fract_y 
_atom_site_fract_z 
_atom_site_charge 
C1          C  0.37690403  0.17528660  0.07991173     0.03430
C2          C  0.40383413  0.14956120  0.05500248    -0.12720
C3          C  0.40436910  0.09871813  0.05583301     0.00930
C4          C  0.37440617  0.07361419  0.07947581    -0.11250
C5          C  0.34504501  0.09898584  0.10287136     0.03420
C6          C  0.34741324  0.14971750  0.10364222    -0.10670
H7          H  0.42492185  0.16906128  0.03537295     0.09010
H8          H  0.37392049  0.03438712  0.07963846     0.06540
H9          H  0.32552476  0.16959619  0.12215027     0.06390
O10         O  0.04546771  0.09258663  0.00646523    -0.74130
O11         O  0.45576603  0.02796473  0.28167035    -0.74160
O12         O  0.45382411  0.09216506  0.00413679    -0.74210
O13         O  0.04831133  0.02842831  0.28384298    -0.74260
O14         O  0.04677707  0.96693147  0.32432341    -0.74200
O15         O  0.45240755  0.03079356  0.04472896    -0.74170
O16         O  0.45511836  0.96658013  0.32227616    -0.74150
O17         O  0.04495813  0.03106971  0.04695912    -0.74210
Ni18       Ni  0.50090704  0.06241239  0.30919882     1.25410
Ni19       Ni  0.49977289  0.99671004  0.01939917     1.25360
C20         C  0.05953005  0.07278632  0.03650601     0.88050
C21         C  0.44102396  0.98636002  0.29225577     0.87980
C22         C  0.43804660  0.07232884  0.03356954     0.88010
C23         C  0.06256815  0.98682177  0.29489722     0.88180
C24         C  0.12336966  0.17545906  0.08091992     0.03430
C25         C  0.09184808  0.14981290  0.05978022    -0.12720
C26         C  0.09242082  0.09901479  0.05958171     0.00930
C27         C  0.12413856  0.07380992  0.08166720    -0.11250
C28         C  0.15510515  0.09913581  0.10379031     0.03380
C29         C  0.15434619  0.14995659  0.10334724    -0.10670
H30         H  0.06623915  0.16940393  0.04404218     0.09010
H31         H  0.12470529  0.03458882  0.08163232     0.06540
H32         H  0.17853350  0.16989175  0.11986725     0.06390
C33         C  0.37617283  0.88418241  0.24821452     0.03430
C34         C  0.40721691  0.90944710  0.27001387    -0.12720
C35         C  0.40790648  0.96025957  0.26933563     0.00930
C36         C  0.37698828  0.98564897  0.24664149    -0.11250
C37         C  0.34583547  0.96049879  0.22458991     0.03420
C38         C  0.34608218  0.90967729  0.22515458    -0.10670
H39         H  0.43089538  0.88937772  0.28738006     0.09010
H40         H  0.37700135  0.02488067  0.24629271     0.06540
H41         H  0.32194135  0.88979945  0.20855367     0.06390
O42         O  0.29741488  0.02825766  0.21222760    -0.74130
O43         O  0.20454833  0.09276975  0.15571062    -0.74160
O44         O  0.20483265  0.02830964  0.21298454    -0.74210
O45         O  0.29640763  0.09272980  0.15523364    -0.74260
O46         O  0.29630620  0.03161019  0.11580064    -0.74200
O47         O  0.20481490  0.96701153  0.17370485    -0.74170
O48         O  0.20359445  0.03146925  0.11644338    -0.74150
O49         O  0.29651380  0.96710981  0.17280506    -0.74210
Ni50       Ni  0.25078538  0.06265202  0.18548090     1.25410
Ni51       Ni  0.25026853  0.99719302  0.14322435     1.25360
C52         C  0.31188580  0.98678253  0.20199056     0.88050
C53         C  0.18916826  0.07301700  0.12652329     0.87980
C54         C  0.19028389  0.98669110  0.20320090     0.88010
C55         C  0.31121488  0.07298464  0.12587613     0.88180
C56         C  0.12595346  0.88426074  0.24999512     0.03430
C57         C  0.09674542  0.90972991  0.27326238    -0.12720
C58         C  0.09644035  0.96055109  0.27272284     0.00930
C59         C  0.12697007  0.98572495  0.24954091    -0.11250
C60         C  0.15716227  0.96041926  0.22670016     0.03420
C61         C  0.15620466  0.90958543  0.22691091    -0.10670
H62         H  0.07319166  0.88981437  0.29082512     0.09010
H63         H  0.12705577  0.02495599  0.24912816     0.06540
H64         H  0.17918193  0.88955042  0.20937186     0.06390
C65         C  0.37365340  0.67573691  0.25149138     0.03430
C66         C  0.40373466  0.65024356  0.27456038    -0.12720
C67         C  0.40396418  0.59942222  0.27514150     0.00930
C68         C  0.37280565  0.57427092  0.25309621    -0.11250
C69         C  0.34189503  0.59965893  0.23039427     0.03420
C70         C  0.34260210  0.65047131  0.22969916    -0.10670
H71         H  0.42787779  0.67012142  0.29115918     0.09010
H72         H  0.37277826  0.53503917  0.25346004     0.06540
H73         H  0.31892726  0.67054034  0.21232952     0.06390
C74         C  0.37278734  0.38463065  0.08647482     0.03430
C75         C  0.40228291  0.41020283  0.06275004    -0.12720
C76         C  0.40466025  0.46093360  0.06353191     0.00930
C77         C  0.37530194  0.48630206  0.08693172    -0.11250
C78         C  0.34533566  0.46119523  0.11056967     0.03420
C79         C  0.34586053  0.41035207  0.11138880    -0.10670
H80         H  0.42417075  0.39032635  0.04424015     0.09010
H81         H  0.37579631  0.52552888  0.08677975     0.06540
H82         H  0.32477063  0.39084947  0.13101542     0.06390
C83         C  0.12385555  0.67565759  0.24984675     0.03430
C84         C  0.15306038  0.65019179  0.22657461    -0.12720
C85         C  0.15335471  0.59937061  0.22710172     0.00930
C86         C  0.12282110  0.57419393  0.25027829    -0.11250
C87         C  0.09263177  0.59949662  0.27312339     0.03420
C88         C  0.09359867  0.65033010  0.27292410    -0.10670
H89         H  0.17661618  0.67010890  0.20901467     0.09010
H90         H  0.12272633  0.53496292  0.25067983     0.06540
H91         H  0.07062142  0.67036325  0.29046439     0.06390
O92         O  0.45324566  0.59281045  0.32695080    -0.74130
O93         O  0.04611832  0.52844638  0.05002703    -0.74160
O94         O  0.04494455  0.59290311  0.32609826    -0.74210
O95         O  0.45340636  0.52830996  0.05062306    -0.74260
O96         O  0.45333224  0.46719017  0.01119028    -0.74200
O97         O  0.04495364  0.53160530  0.28681836    -0.74170
O98         O  0.04519153  0.46714538  0.01075964    -0.74150
O99         O  0.45237158  0.53166133  0.28752878    -0.74210
Ni100      Ni  0.49946629  0.56272465  0.02322231     1.25410
Ni101      Ni  0.49897883  0.49726519  0.31429919     1.25360
C102        C  0.43789555  0.57313791  0.29775777     0.88050
C103        C  0.06055040  0.48689788  0.03995425     0.87980
C104        C  0.05949612  0.57322344  0.29660885     0.88010
C105        C  0.43850429  0.48693573  0.04054087     0.88180
O106        O  0.20475247  0.52884637  0.11951114    -0.74130
O107        O  0.29464237  0.59333583  0.17747712    -0.74160
O108        O  0.29730456  0.52911891  0.12169292    -0.74210
O109        O  0.20298181  0.59298924  0.17547886    -0.74260
O110        O  0.20147572  0.53149392  0.21596151    -0.74200
O111        O  0.29591679  0.46774946  0.16228775    -0.74170
O112        O  0.29402286  0.53195439  0.21808584    -0.74150
O113        O  0.20427137  0.46733189  0.16000730    -0.74210
Ni114      Ni  0.24996139  0.56320616  0.14704599     1.25410
Ni115      Ni  0.24885811  0.49750634  0.19058246     1.25360
C116        C  0.19018693  0.48713066  0.12997274     0.88050
C117        C  0.30875942  0.57355751  0.20749106     0.87980
C118        C  0.31167256  0.48758395  0.13284674     0.88010
C119        C  0.18721229  0.57310046  0.20491322     0.88180
C120        C  0.12631305  0.38445570  0.08559091     0.03430
C121        C  0.09534349  0.40995808  0.06315724    -0.12720
C122        C  0.09459737  0.46077878  0.06270226     0.00930
C123        C  0.12556788  0.48610525  0.08482106    -0.11250
C124        C  0.15728011  0.46090070  0.10691220     0.03420
C125        C  0.15783982  0.41010174  0.10672596    -0.10670
H126        H  0.07115463  0.39002338  0.04663831     0.09010
H127        H  0.12501232  0.52532677  0.08484425     0.06540
H128        H  0.18344605  0.39050963  0.12246619     0.06390
C129        C  0.15625627  0.80521738  0.27130860    -0.05480
C130        C  0.12464506  0.83086987  0.24959718     0.00440
C131        C  0.09281164  0.80560770  0.22777736    -0.08130
C132        C  0.09354996  0.75470075  0.22853845    -0.05500
C133        C  0.12516232  0.72904829  0.25024852     0.00430
C134        C  0.15699237  0.75431016  0.27207153    -0.08040
C135        C  0.19127980  0.72738157  0.29608615     0.62340
H136        H  0.18035720  0.82549764  0.28762306     0.13040
H137        H  0.06944914  0.73442035  0.21222397     0.13050
C138        C  0.05851689  0.83253529  0.20376877     0.62580
F139        F  0.21744066  0.75871340  0.31659796    -0.22590
F140        F  0.22030200  0.70065204  0.27427190    -0.19920
F141        F  0.16865496  0.69658037  0.32026623    -0.19600
F142        F  0.08113428  0.86333586  0.17958366    -0.19650
F143        F  0.02950077  0.85926515  0.22558797    -0.19970
F144        F  0.03234938  0.80120253  0.18326323    -0.22650
C145        C  0.40000670  0.80548001  0.22325254    -0.05480
C146        C  0.37499965  0.83082866  0.24963157     0.00440
C147        C  0.34943635  0.80531841  0.27667375    -0.08130
C148        C  0.34982079  0.75443930  0.27645016    -0.05500
C149        C  0.37482802  0.72909052  0.25007161     0.00430
C150        C  0.40039012  0.75460045  0.22302849    -0.08040
C151        C  0.42827416  0.72795645  0.19450015     0.62340
H152        H  0.41939018  0.82597395  0.20296531     0.13040
H153        H  0.33043728  0.73394537  0.29673740     0.13050
C154        C  0.32154895  0.83196138  0.30520067     0.62580
F155        F  0.44996313  0.75953057  0.17032380    -0.22590
F156        F  0.40018550  0.69840970  0.17410233    -0.19920
F157        F  0.46117702  0.69993893  0.21193884    -0.19600
F158        F  0.28864684  0.85997821  0.28776038    -0.19650
F159        F  0.34963467  0.86150829  0.32560088    -0.19970
F160        F  0.29985842  0.80038626  0.32937508    -0.22650
C161        C  0.13693916  0.30787129  0.05251228    -0.05480
C162        C  0.12636895  0.33084467  0.08563201     0.00440
C163        C  0.11386653  0.30270688  0.11700768    -0.08130
C164        C  0.11274136  0.25204331  0.11400010    -0.05500
C165        C  0.12331133  0.22907007  0.08088012     0.00430
C166        C  0.13581338  0.25720813  0.04950443    -0.08040
C167        C  0.14882820  0.23410788  0.01324444     0.62340
H168        H  0.14602218  0.33021878  0.02887603     0.13040
H169        H  0.10365885  0.22969572  0.13763640     0.13050
C170        C  0.10085042  0.32580818  0.15326687     0.62580
F171        F  0.16594268  0.26780289  0.32158315    -0.22590
F172        F  0.11094624  0.21299709  0.99750972    -0.19920
F173        F  0.18203561  0.19923821  0.01914983    -0.19600
F174        F  0.06764045  0.36067477  0.14736021    -0.19650
F175        F  0.13873086  0.34692342  0.16900046    -0.19970
F176        F  0.08373865  0.29211321  0.17826276    -0.22650
C177        C  0.33605421  0.25330383  0.07465619    -0.05480
C178        C  0.37760300  0.22902449  0.08058365     0.00440
C179        C  0.41729914  0.25600598  0.08937848    -0.08130
C180        C  0.41363715  0.30661364  0.09172535    -0.05500
C181        C  0.37208836  0.33089297  0.08579836     0.00430
C182        C  0.33239250  0.30391179  0.07700250    -0.08040
C183        C  0.28638951  0.32779980  0.06960513     0.62340
H184        H  0.30610718  0.23192814  0.06839360     0.13040
H185        H  0.44358403  0.32798924  0.09798855     0.13050
C186        C  0.46330317  0.23211896  0.09677389     0.62580
F187        F  0.25562860  0.29588433  0.05419261    -0.22590
F188        F  0.29139080  0.36655199  0.04540404    -0.19920
F189        F  0.26773616  0.34370170  0.10219576    -0.19600
F190        F  0.48195473  0.21621851  0.06418221    -0.19650
F191        F  0.45830454  0.19336618  0.12097478    -0.19970
F192        F  0.49406452  0.26403482  0.11218541    -0.22650
C193        C  0.37690404  0.17528660  0.41324507     0.03430
C194        C  0.40383414  0.14956120  0.38833582    -0.12720
C195        C  0.40436911  0.09871813  0.38916635     0.00930
C196        C  0.37440617  0.07361419  0.41280914    -0.11250
C197        C  0.34504501  0.09898584  0.43620469     0.03420
C198        C  0.34741324  0.14971750  0.43697556    -0.10670
H199        H  0.42492186  0.16906128  0.36870629     0.09010
H200        H  0.37392049  0.03438712  0.41297179     0.06540
H201        H  0.32552477  0.16959619  0.45548361     0.06390
O202        O  0.04546771  0.09258662  0.33979856    -0.74130
O203        O  0.45576603  0.02796473  0.61500368    -0.74160
O204        O  0.45382411  0.09216506  0.33747012    -0.74210
O205        O  0.04831133  0.02842832  0.61717631    -0.74260
O206        O  0.04677707  0.96693147  0.65765675    -0.74200
O207        O  0.45240756  0.03079356  0.37806229    -0.74170
O208        O  0.45511836  0.96658014  0.65560950    -0.74150
O209        O  0.04495814  0.03106970  0.38029246    -0.74210
Ni210      Ni  0.50090705  0.06241240  0.64253215     1.25410
Ni211      Ni  0.49977289  0.99671004  0.35273251     1.25360
C212        C  0.05953005  0.07278632  0.36983934     0.88050
C213        C  0.44102396  0.98636002  0.62558911     0.87980
C214        C  0.43804661  0.07232884  0.36690288     0.88010
C215        C  0.06256816  0.98682177  0.62823055     0.88180
C216        C  0.12336966  0.17545906  0.41425325     0.03430
C217        C  0.09184808  0.14981290  0.39311356    -0.12720
C218        C  0.09242082  0.09901479  0.39291505     0.00930
C219        C  0.12413856  0.07380992  0.41500054    -0.11250
C220        C  0.15510515  0.09913581  0.43712364     0.03380
C221        C  0.15434619  0.14995659  0.43668057    -0.10670
H222        H  0.06623915  0.16940392  0.37737551     0.09010
H223        H  0.12470530  0.03458882  0.41496565     0.06540
H224        H  0.17853349  0.16989175  0.45320059     0.06390
C225        C  0.37617284  0.88418241  0.58154785     0.03430
C226        C  0.40721691  0.90944711  0.60334720    -0.12720
C227        C  0.40790649  0.96025958  0.60266896     0.00930
C228        C  0.37698828  0.98564897  0.57997482    -0.11250
C229        C  0.34583548  0.96049879  0.55792325     0.03420
C230        C  0.34608219  0.90967730  0.55848791    -0.10670
H231        H  0.43089538  0.88937772  0.62071339     0.09010
H232        H  0.37700135  0.02488068  0.57962604     0.06540
H233        H  0.32194136  0.88979945  0.54188700     0.06390
O234        O  0.29741488  0.02825767  0.54556093    -0.74130
O235        O  0.20454833  0.09276975  0.48904395    -0.74160
O236        O  0.20483265  0.02830964  0.54631788    -0.74210
O237        O  0.29640764  0.09272981  0.48856697    -0.74260
O238        O  0.29630620  0.03161020  0.44913397    -0.74200
O239        O  0.20481490  0.96701153  0.50703818    -0.74170
O240        O  0.20359446  0.03146925  0.44977672    -0.74150
O241        O  0.29651380  0.96710981  0.50613840    -0.74210
Ni242      Ni  0.25078539  0.06265202  0.51881423     1.25410
Ni243      Ni  0.25026853  0.99719302  0.47655769     1.25360
C244        C  0.31188580  0.98678253  0.53532390     0.88050
C245        C  0.18916826  0.07301700  0.45985663     0.87980
C246        C  0.19028390  0.98669110  0.53653423     0.88010
C247        C  0.31121488  0.07298465  0.45920946     0.88180
C248        C  0.12595346  0.88426075  0.58332846     0.03430
C249        C  0.09674542  0.90972991  0.60659571    -0.12720
C250        C  0.09644035  0.96055109  0.60605618     0.00930
C251        C  0.12697007  0.98572495  0.58287424    -0.11250
C252        C  0.15716227  0.96041926  0.56003350     0.03420
C253        C  0.15620466  0.90958543  0.56024424    -0.10670
H254        H  0.07319166  0.88981437  0.62415846     0.09010
H255        H  0.12705577  0.02495600  0.58246149     0.06540
H256        H  0.17918193  0.88955043  0.54270519     0.06390
C257        C  0.37365340  0.67573691  0.58482470     0.03430
C258        C  0.40373466  0.65024357  0.60789371    -0.12720
C259        C  0.40396418  0.59942223  0.60847483     0.00930
C260        C  0.37280565  0.57427093  0.58642955    -0.11250
C261        C  0.34189503  0.59965893  0.56372761     0.03420
C262        C  0.34260210  0.65047132  0.56303249    -0.10670
H263        H  0.42787779  0.67012143  0.62449251     0.09010
H264        H  0.37277826  0.53503917  0.58679337     0.06540
H265        H  0.31892726  0.67054034  0.54566285     0.06390
C266        C  0.37278734  0.38463065  0.41980816     0.03430
C267        C  0.40228291  0.41020283  0.39608338    -0.12720
C268        C  0.40466025  0.46093360  0.39686525     0.00930
C269        C  0.37530194  0.48630206  0.42026506    -0.11250
C270        C  0.34533566  0.46119523  0.44390301     0.03420
C271        C  0.34586054  0.41035207  0.44472215    -0.10670
H272        H  0.42417076  0.39032635  0.37757349     0.09010
H273        H  0.37579631  0.52552889  0.42011308     0.06540
H274        H  0.32477064  0.39084947  0.46434876     0.06390
C275        C  0.12385555  0.67565760  0.58318008     0.03430
C276        C  0.15306038  0.65019179  0.55990794    -0.12720
C277        C  0.15335471  0.59937061  0.56043505     0.00930
C278        C  0.12282110  0.57419393  0.58361162    -0.11250
C279        C  0.09263177  0.59949663  0.60645672     0.03420
C280        C  0.09359867  0.65033010  0.60625743    -0.10670
H281        H  0.17661618  0.67010890  0.54234800     0.09010
H282        H  0.12272633  0.53496293  0.58401317     0.06540
H283        H  0.07062142  0.67036325  0.62379772     0.06390
O284        O  0.45324566  0.59281046  0.66028413    -0.74130
O285        O  0.04611832  0.52844638  0.38336036    -0.74160
O286        O  0.04494454  0.59290312  0.65943159    -0.74210
O287        O  0.45340636  0.52830996  0.38395639    -0.74260
O288        O  0.45333224  0.46719016  0.34452362    -0.74200
O289        O  0.04495364  0.53160531  0.62015169    -0.74170
O290        O  0.04519153  0.46714538  0.34409297    -0.74150
O291        O  0.45237158  0.53166134  0.62086212    -0.74210
Ni292      Ni  0.49946629  0.56272465  0.35655564     1.25410
Ni293      Ni  0.49897883  0.49726519  0.64763252     1.25360
C294        C  0.43789555  0.57313791  0.63109110     0.88050
C295        C  0.06055040  0.48689788  0.37328758     0.87980
C296        C  0.05949612  0.57322345  0.62994218     0.88010
C297        C  0.43850429  0.48693573  0.37387421     0.88180
O298        O  0.20475247  0.52884637  0.45284448    -0.74130
O299        O  0.29464237  0.59333583  0.51081045    -0.74160
O300        O  0.29730456  0.52911891  0.45502626    -0.74210
O301        O  0.20298181  0.59298924  0.50881219    -0.74260
O302        O  0.20147572  0.53149393  0.54929485    -0.74200
O303        O  0.29591679  0.46774946  0.49562109    -0.74170
O304        O  0.29402286  0.53195440  0.55141917    -0.74150
O305        O  0.20427137  0.46733189  0.49334063    -0.74210
Ni306      Ni  0.24996139  0.56320616  0.48037932     1.25410
Ni307      Ni  0.24885811  0.49750635  0.52391579     1.25360
C308        C  0.19018693  0.48713066  0.46330608     0.88050
C309        C  0.30875942  0.57355752  0.54082439     0.87980
C310        C  0.31167256  0.48758395  0.46618008     0.88010
C311        C  0.18721229  0.57310046  0.53824656     0.88180
C312        C  0.12631305  0.38445570  0.41892425     0.03430
C313        C  0.09534349  0.40995808  0.39649058    -0.12720
C314        C  0.09459737  0.46077877  0.39603560     0.00930
C315        C  0.12556788  0.48610525  0.41815439    -0.11250
C316        C  0.15728011  0.46090070  0.44024553     0.03420
C317        C  0.15783982  0.41010174  0.44005929    -0.10670
H318        H  0.07115463  0.39002338  0.37997165     0.09010
H319        H  0.12501232  0.52532677  0.41817759     0.06540
H320        H  0.18344605  0.39050963  0.45579953     0.06390
C321        C  0.15625626  0.80521739  0.60464194    -0.05480
C322        C  0.12464506  0.83086988  0.58293051     0.00440
C323        C  0.09281165  0.80560770  0.56111068    -0.08130
C324        C  0.09354996  0.75470076  0.56187177    -0.05500
C325        C  0.12516232  0.72904830  0.58358185     0.00430
C326        C  0.15699237  0.75431016  0.60540486    -0.08040
C327        C  0.19127978  0.72738157  0.62941950     0.62340
H328        H  0.18035719  0.82549764  0.62095640     0.13040
H329        H  0.06944916  0.73442036  0.54555729     0.13050
C330        C  0.05851691  0.83253530  0.53710209     0.62580
F331        F  0.21744064  0.75871340  0.64993130    -0.22590
F332        F  0.22030199  0.70065204  0.60760524    -0.19920
F333        F  0.16865494  0.69658037  0.65359957    -0.19600
F334        F  0.08113430  0.86333586  0.51291699    -0.19650
F335        F  0.02950079  0.85926516  0.55892128    -0.19970
F336        F  0.03234940  0.80120253  0.51659654    -0.22650
C337        C  0.40000671  0.80548001  0.55658587    -0.05480
C338        C  0.37499965  0.83082867  0.58296490     0.00440
C339        C  0.34943635  0.80531842  0.61000708    -0.08130
C340        C  0.34982079  0.75443931  0.60978348    -0.05500
C341        C  0.37482802  0.72909053  0.58340493     0.00430
C342        C  0.40039012  0.75460045  0.55636182    -0.08040
C343        C  0.42827415  0.72795646  0.52783347     0.62340
H344        H  0.41939019  0.82597396  0.53629864     0.13040
H345        H  0.33043728  0.73394537  0.63007073     0.13050
C346        C  0.32154895  0.83196139  0.63853399     0.62580
F347        F  0.44996313  0.75953057  0.50365712    -0.22590
F348        F  0.40018549  0.69840971  0.50743566    -0.19920
F349        F  0.46117702  0.69993894  0.54527216    -0.19600
F350        F  0.28864685  0.85997822  0.62109371    -0.19650
F351        F  0.34963466  0.86150830  0.65893420    -0.19970
F352        F  0.29985842  0.80038627  0.66270841    -0.22650
C353        C  0.13693916  0.30787130  0.38584561    -0.05480
C354        C  0.12636895  0.33084467  0.41896535     0.00440
C355        C  0.11386653  0.30270688  0.45034102    -0.08130
C356        C  0.11274136  0.25204331  0.44733343    -0.05500
C357        C  0.12331132  0.22907007  0.41421346     0.00430
C358        C  0.13581337  0.25720813  0.38283776    -0.08040
C359        C  0.14882819  0.23410789  0.34657777     0.62340
H360        H  0.14602218  0.33021878  0.36220936     0.13040
H361        H  0.10365885  0.22969571  0.47096973     0.13050
C362        C  0.10085043  0.32580818  0.48660020     0.62580
F363        F  0.16594267  0.26780290  0.65491648    -0.22590
F364        F  0.11094623  0.21299710  0.33084305    -0.19920
F365        F  0.18203560  0.19923821  0.35248316    -0.19600
F366        F  0.06764046  0.36067477  0.48069355    -0.19650
F367        F  0.13873086  0.34692342  0.50233380    -0.19970
F368        F  0.08373866  0.29211320  0.51159609    -0.22650
C369        C  0.33605422  0.25330383  0.40798953    -0.05480
C370        C  0.37760300  0.22902449  0.41391699     0.00440
C371        C  0.41729915  0.25600598  0.42271182    -0.08130
C372        C  0.41363716  0.30661365  0.42505869    -0.05500
C373        C  0.37208836  0.33089297  0.41913170     0.00430
C374        C  0.33239251  0.30391179  0.41033585    -0.08040
C375        C  0.28638951  0.32779980  0.40293848     0.62340
H376        H  0.30610719  0.23192814  0.40172695     0.13040
H377        H  0.44358403  0.32798925  0.43132189     0.13050
C378        C  0.46330318  0.23211896  0.43010723     0.62580
F379        F  0.25562861  0.29588433  0.38752596    -0.22590
F380        F  0.29139080  0.36655199  0.37873739    -0.19920
F381        F  0.26773616  0.34370170  0.43552911    -0.19600
F382        F  0.48195474  0.21621851  0.39751555    -0.19650
F383        F  0.45830455  0.19336618  0.45430811    -0.19970
F384        F  0.49406453  0.26403482  0.44551875    -0.22650
C385        C  0.37690403  0.17528661  0.74657839     0.03430
C386        C  0.40383413  0.14956120  0.72166915    -0.12720
C387        C  0.40436910  0.09871814  0.72249968     0.00930
C388        C  0.37440617  0.07361420  0.74614247    -0.11250
C389        C  0.34504501  0.09898585  0.76953802     0.03420
C390        C  0.34741324  0.14971751  0.77030889    -0.10670
H391        H  0.42492185  0.16906128  0.70203962     0.09010
H392        H  0.37392048  0.03438712  0.74630512     0.06540
H393        H  0.32552476  0.16959620  0.78881694     0.06390
O394        O  0.04546771  0.09258663  0.67313189    -0.74130
O395        O  0.45576603  0.02796473  0.94833701    -0.74160
O396        O  0.45382411  0.09216507  0.67080345    -0.74210
O397        O  0.04831133  0.02842832  0.95050964    -0.74260
O398        O  0.04677707  0.96693147  0.99099008    -0.74200
O399        O  0.45240755  0.03079356  0.71139562    -0.74170
O400        O  0.45511836  0.96658013  0.98894283    -0.74150
O401        O  0.04495813  0.03106971  0.71362579    -0.74210
Ni402      Ni  0.50090704  0.06241239  0.97586549     1.25410
Ni403      Ni  0.49977289  0.99671005  0.68606584     1.25360
C404        C  0.05953004  0.07278633  0.70317267     0.88050
C405        C  0.44102396  0.98636002  0.95892244     0.87980
C406        C  0.43804661  0.07232885  0.70023621     0.88010
C407        C  0.06256816  0.98682177  0.96156388     0.88180
C408        C  0.12336965  0.17545907  0.74758659     0.03430
C409        C  0.09184807  0.14981291  0.72644689    -0.12720
C410        C  0.09242082  0.09901480  0.72624838     0.00930
C411        C  0.12413856  0.07380993  0.74833387    -0.11250
C412        C  0.15510515  0.09913582  0.77045698     0.03380
C413        C  0.15434618  0.14995660  0.77001391    -0.10670
H414        H  0.06623914  0.16940393  0.71070885     0.09010
H415        H  0.12470529  0.03458883  0.74829899     0.06540
H416        H  0.17853349  0.16989175  0.78653392     0.06390
C417        C  0.37617284  0.88418241  0.91488118     0.03430
C418        C  0.40721691  0.90944711  0.93668053    -0.12720
C419        C  0.40790648  0.96025957  0.93600229     0.00930
C420        C  0.37698828  0.98564897  0.91330815    -0.11250
C421        C  0.34583548  0.96049880  0.89125657     0.03420
C422        C  0.34608219  0.90967730  0.89182124    -0.10670
H423        H  0.43089538  0.88937772  0.95404672     0.09010
H424        H  0.37700135  0.02488068  0.91295937     0.06540
H425        H  0.32194136  0.88979945  0.87522033     0.06390
O426        O  0.29741488  0.02825767  0.87889426    -0.74130
O427        O  0.20454833  0.09276976  0.82237729    -0.74160
O428        O  0.20483265  0.02830965  0.87965121    -0.74210
O429        O  0.29640763  0.09272981  0.82190030    -0.74260
O430        O  0.29630620  0.03161020  0.78246730    -0.74200
O431        O  0.20481490  0.96701154  0.84037152    -0.74170
O432        O  0.20359445  0.03146926  0.78311005    -0.74150
O433        O  0.29651380  0.96710982  0.83947173    -0.74210
Ni434      Ni  0.25078539  0.06265202  0.85214757     1.25410
Ni435      Ni  0.25026853  0.99719303  0.80989102     1.25360
C436        C  0.31188580  0.98678253  0.86865723     0.88050
C437        C  0.18916826  0.07301700  0.79318996     0.87980
C438        C  0.19028390  0.98669111  0.86986757     0.88010
C439        C  0.31121488  0.07298465  0.79254279     0.88180
C440        C  0.12595347  0.88426075  0.91666179     0.03430
C441        C  0.09674542  0.90972991  0.93992904    -0.12720
C442        C  0.09644035  0.96055109  0.93938951     0.00930
C443        C  0.12697007  0.98572495  0.91620758    -0.11250
C444        C  0.15716228  0.96041926  0.89336683     0.03420
C445        C  0.15620467  0.90958544  0.89357758    -0.10670
H446        H  0.07319166  0.88981437  0.95749179     0.09010
H447        H  0.12705577  0.02495600  0.91579483     0.06540
H448        H  0.17918194  0.88955043  0.87603853     0.06390
C449        C  0.37365340  0.67573691  0.91815805     0.03430
C450        C  0.40373466  0.65024357  0.94122705    -0.12720
C451        C  0.40396418  0.59942223  0.94180817     0.00930
C452        C  0.37280565  0.57427093  0.91976288    -0.11250
C453        C  0.34189503  0.59965893  0.89706094     0.03420
C454        C  0.34260210  0.65047132  0.89636583    -0.10670
H455        H  0.42787778  0.67012142  0.95782586     0.09010
H456        H  0.37277826  0.53503917  0.92012671     0.06540
H457        H  0.31892726  0.67054035  0.87899619     0.06390
C458        C  0.37278734  0.38463066  0.75314149     0.03430
C459        C  0.40228291  0.41020283  0.72941671    -0.12720
C460        C  0.40466025  0.46093361  0.73019858     0.00930
C461        C  0.37530194  0.48630207  0.75359839    -0.11250
C462        C  0.34533566  0.46119523  0.77723634     0.03420
C463        C  0.34586054  0.41035208  0.77805548    -0.10670
H464        H  0.42417075  0.39032636  0.71090682     0.09010
H465        H  0.37579631  0.52552889  0.75344641     0.06540
H466        H  0.32477063  0.39084948  0.79768209     0.06390
C467        C  0.12385554  0.67565760  0.91651342     0.03430
C468        C  0.15306038  0.65019179  0.89324128    -0.12720
C469        C  0.15335471  0.59937062  0.89376839     0.00930
C470        C  0.12282110  0.57419393  0.91694495    -0.11250
C471        C  0.09263177  0.59949663  0.93979005     0.03420
C472        C  0.09359866  0.65033010  0.93959077    -0.10670
H473        H  0.17661618  0.67010891  0.87568135     0.09010
H474        H  0.12272633  0.53496293  0.91734650     0.06540
H475        H  0.07062141  0.67036325  0.95713106     0.06390
O476        O  0.45324566  0.59281045  0.99361746    -0.74130
O477        O  0.04611832  0.52844639  0.71669369    -0.74160
O478        O  0.04494454  0.59290311  0.99276493    -0.74210
O479        O  0.45340635  0.52830997  0.71728972    -0.74260
O480        O  0.45333224  0.46719017  0.67785695    -0.74200
O481        O  0.04495364  0.53160531  0.95348502    -0.74170
O482        O  0.04519153  0.46714539  0.67742631    -0.74150
O483        O  0.45237158  0.53166134  0.95419545    -0.74210
Ni484      Ni  0.49946629  0.56272466  0.68988897     1.25410
Ni485      Ni  0.49897883  0.49726519  0.98096586     1.25360
C486        C  0.43789555  0.57313791  0.96442444     0.88050
C487        C  0.06055040  0.48689789  0.70662092     0.87980
C488        C  0.05949612  0.57322344  0.96327552     0.88010
C489        C  0.43850428  0.48693573  0.70720754     0.88180
O490        O  0.20475247  0.52884638  0.78617781    -0.74130
O491        O  0.29464237  0.59333584  0.84414378    -0.74160
O492        O  0.29730456  0.52911892  0.78835959    -0.74210
O493        O  0.20298181  0.59298925  0.84214553    -0.74260
O494        O  0.20147572  0.53149393  0.88262818    -0.74200
O495        O  0.29591679  0.46774947  0.82895442    -0.74170
O496        O  0.29402286  0.53195440  0.88475251    -0.74150
O497        O  0.20427137  0.46733190  0.82667397    -0.74210
Ni498      Ni  0.24996139  0.56320617  0.81371265     1.25410
Ni499      Ni  0.24885811  0.49750635  0.85724912     1.25360
C500        C  0.19018693  0.48713067  0.79663941     0.88050
C501        C  0.30875942  0.57355752  0.87415773     0.87980
C502        C  0.31167256  0.48758396  0.79951341     0.88010
C503        C  0.18721229  0.57310047  0.87157989     0.88180
C504        C  0.12631305  0.38445571  0.75225758     0.03430
C505        C  0.09534349  0.40995808  0.72982391    -0.12720
C506        C  0.09459737  0.46077878  0.72936893     0.00930
C507        C  0.12556788  0.48610526  0.75148773    -0.11250
C508        C  0.15728011  0.46090070  0.77357887     0.03420
C509        C  0.15783982  0.41010175  0.77339263    -0.10670
H510        H  0.07115463  0.39002339  0.71330498     0.09010
H511        H  0.12501232  0.52532678  0.75151092     0.06540
H512        H  0.18344605  0.39050964  0.78913286     0.06390
C513        C  0.15625623  0.80521738  0.93797531    -0.05480
C514        C  0.12464507  0.83086988  0.91626384     0.00440
C515        C  0.09281168  0.80560770  0.89444398    -0.08130
C516        C  0.09355000  0.75470076  0.89520507    -0.05500
C517        C  0.12516232  0.72904830  0.91691519     0.00430
C518        C  0.15699232  0.75431016  0.93873824    -0.08040
C519        C  0.19127970  0.72738157  0.96275291     0.62340
H520        H  0.18035713  0.82549764  0.95428980     0.13040
H521        H  0.06944922  0.73442037  0.87889056     0.13050
C522        C  0.05851698  0.83253531  0.87043536     0.62580
F523        F  0.21744054  0.75871339  0.98326474    -0.22590
F524        F  0.22030194  0.70065202  0.94093868    -0.19920
F525        F  0.16865482  0.69658037  0.98693296    -0.19600
F526        F  0.08113441  0.86333586  0.84625027    -0.19650
F527        F  0.02950084  0.85926518  0.89225452    -0.19970
F528        F  0.03234949  0.80120254  0.84992979    -0.22650
C529        C  0.40000674  0.80548001  0.88991923    -0.05480
C530        C  0.37499965  0.83082867  0.91629823     0.00440
C531        C  0.34943631  0.80531842  0.94334039    -0.08130
C532        C  0.34982076  0.75443931  0.94311680    -0.05500
C533        C  0.37482802  0.72909053  0.91673828     0.00430
C534        C  0.40039016  0.75460045  0.88969518    -0.08040
C535        C  0.42827422  0.72795644  0.86116686     0.62340
H536        H  0.41939025  0.82597395  0.86963201     0.13040
H537        H  0.33043722  0.73394538  0.96340403     0.13050
C538        C  0.32154888  0.83196140  0.97186728     0.62580
F539        F  0.44996322  0.75953056  0.83699052    -0.22590
F540        F  0.40018559  0.69840968  0.84076903    -0.19920
F541        F  0.46117708  0.69993894  0.87860558    -0.19600
F542        F  0.28864678  0.85997822  0.95442696    -0.19650
F543        F  0.34963456  0.86150832  0.99226750    -0.19970
F544        F  0.29985832  0.80038629  0.99604168    -0.22650
C545        C  0.13693915  0.30787130  0.71917895    -0.05480
C546        C  0.12636895  0.33084467  0.75229868     0.00440
C547        C  0.11386653  0.30270689  0.78367435    -0.08130
C548        C  0.11274136  0.25204332  0.78066677    -0.05500
C549        C  0.12331132  0.22907008  0.74754679     0.00430
C550        C  0.13581337  0.25720813  0.71617110    -0.08040
C551        C  0.14882819  0.23410789  0.67991110     0.62340
H552        H  0.14602217  0.33021879  0.69554270     0.13040
H553        H  0.10365885  0.22969572  0.80430307     0.13050
C554        C  0.10085043  0.32580818  0.81993354     0.62580
F555        F  0.16594269  0.26780289  0.98824981    -0.22590
F556        F  0.11094622  0.21299711  0.66417639    -0.19920
F557        F  0.18203559  0.19923822  0.68581649    -0.19600
F558        F  0.06764046  0.36067477  0.81402689    -0.19650
F559        F  0.13873087  0.34692343  0.83566713    -0.19970
F560        F  0.08373866  0.29211321  0.84492943    -0.22650
C561        C  0.33605421  0.25330384  0.74132286    -0.05480
C562        C  0.37760300  0.22902449  0.74725032     0.00440
C563        C  0.41729915  0.25600598  0.75604514    -0.08130
C564        C  0.41363715  0.30661365  0.75839202    -0.05500
C565        C  0.37208836  0.33089298  0.75246503     0.00430
C566        C  0.33239250  0.30391180  0.74366918    -0.08040
C567        C  0.28638950  0.32779981  0.73627181     0.62340
H568        H  0.30610718  0.23192814  0.73506028     0.13040
H569        H  0.44358403  0.32798925  0.76465521     0.13050
C570        C  0.46330318  0.23211897  0.76344055     0.62580
F571        F  0.25562860  0.29588433  0.72085929    -0.22590
F572        F  0.29139079  0.36655199  0.71207073    -0.19920
F573        F  0.26773616  0.34370170  0.76886245    -0.19600
F574        F  0.48195473  0.21621852  0.73084887    -0.19650
F575        F  0.45830455  0.19336618  0.78764143    -0.19970
F576        F  0.49406453  0.26403483  0.77885207    -0.22650
C577        C  0.87690403  0.17528660  0.07991172     0.03430
C578        C  0.90383413  0.14956120  0.05500248    -0.12720
C579        C  0.90436910  0.09871813  0.05583301     0.00930
C580        C  0.87440617  0.07361419  0.07947581    -0.11250
C581        C  0.84504501  0.09898584  0.10287135     0.03420
C582        C  0.84741323  0.14971750  0.10364222    -0.10670
H583        H  0.92492185  0.16906128  0.03537295     0.09010
H584        H  0.87392049  0.03438712  0.07963846     0.06540
H585        H  0.82552476  0.16959619  0.12215027     0.06390
O586        O  0.54546771  0.09258662  0.00646523    -0.74130
O587        O  0.95576602  0.02796473  0.28167035    -0.74160
O588        O  0.95382411  0.09216506  0.00413679    -0.74210
O589        O  0.54831133  0.02842831  0.28384298    -0.74260
O590        O  0.54677707  0.96693147  0.32432341    -0.74200
O591        O  0.95240756  0.03079356  0.04472896    -0.74170
O592        O  0.95511836  0.96658013  0.32227616    -0.74150
O593        O  0.54495813  0.03106970  0.04695912    -0.74210
Ni594      Ni  0.00090704  0.06241239  0.30919882     1.25410
Ni595      Ni  0.99977289  0.99671004  0.01939917     1.25360
C596        C  0.55953004  0.07278632  0.03650601     0.88050
C597        C  0.94102395  0.98636002  0.29225577     0.87980
C598        C  0.93804661  0.07232885  0.03356954     0.88010
C599        C  0.56256815  0.98682177  0.29489722     0.88180
C600        C  0.62336965  0.17545906  0.08091992     0.03430
C601        C  0.59184807  0.14981290  0.05978023    -0.12720
C602        C  0.59242082  0.09901479  0.05958172     0.00930
C603        C  0.62413856  0.07380992  0.08166720    -0.11250
C604        C  0.65510515  0.09913581  0.10379031     0.03380
C605        C  0.65434618  0.14995659  0.10334724    -0.10670
H606        H  0.56623914  0.16940392  0.04404218     0.09010
H607        H  0.62470529  0.03458882  0.08163232     0.06540
H608        H  0.67853349  0.16989175  0.11986726     0.06390
C609        C  0.87617283  0.88418241  0.24821452     0.03430
C610        C  0.90721691  0.90944710  0.27001387    -0.12720
C611        C  0.90790648  0.96025957  0.26933563     0.00930
C612        C  0.87698828  0.98564897  0.24664149    -0.11250
C613        C  0.84583548  0.96049879  0.22458991     0.03420
C614        C  0.84608218  0.90967730  0.22515458    -0.10670
H615        H  0.93089538  0.88937772  0.28738006     0.09010
H616        H  0.87700135  0.02488067  0.24629271     0.06540
H617        H  0.82194135  0.88979945  0.20855367     0.06390
O618        O  0.79741488  0.02825766  0.21222759    -0.74130
O619        O  0.70454833  0.09276975  0.15571062    -0.74160
O620        O  0.70483265  0.02830964  0.21298454    -0.74210
O621        O  0.79640763  0.09272980  0.15523364    -0.74260
O622        O  0.79630620  0.03161019  0.11580064    -0.74200
O623        O  0.70481490  0.96701153  0.17370485    -0.74170
O624        O  0.70359445  0.03146925  0.11644338    -0.74150
O625        O  0.79651380  0.96710981  0.17280506    -0.74210
Ni626      Ni  0.75078538  0.06265202  0.18548090     1.25410
Ni627      Ni  0.75026853  0.99719302  0.14322435     1.25360
C628        C  0.81188580  0.98678253  0.20199056     0.88050
C629        C  0.68916826  0.07301700  0.12652329     0.87980
C630        C  0.69028390  0.98669110  0.20320090     0.88010
C631        C  0.81121488  0.07298464  0.12587613     0.88180
C632        C  0.62595346  0.88426074  0.24999512     0.03430
C633        C  0.59674542  0.90972991  0.27326238    -0.12720
C634        C  0.59644035  0.96055109  0.27272284     0.00930
C635        C  0.62697007  0.98572495  0.24954091    -0.11250
C636        C  0.65716227  0.96041926  0.22670016     0.03420
C637        C  0.65620466  0.90958543  0.22691091    -0.10670
H638        H  0.57319166  0.88981437  0.29082512     0.09010
H639        H  0.62705577  0.02495599  0.24912816     0.06540
H640        H  0.67918193  0.88955042  0.20937186     0.06390
C641        C  0.87365340  0.67573691  0.25149137     0.03430
C642        C  0.90373466  0.65024356  0.27456038    -0.12720
C643        C  0.90396418  0.59942222  0.27514150     0.00930
C644        C  0.87280565  0.57427092  0.25309621    -0.11250
C645        C  0.84189503  0.59965893  0.23039427     0.03420
C646        C  0.84260210  0.65047131  0.22969916    -0.10670
H647        H  0.92787779  0.67012142  0.29115918     0.09010
H648        H  0.87277826  0.53503917  0.25346004     0.06540
H649        H  0.81892726  0.67054034  0.21232952     0.06390
C650        C  0.87278733  0.38463065  0.08647481     0.03430
C651        C  0.90228290  0.41020283  0.06275004    -0.12720
C652        C  0.90466025  0.46093360  0.06353191     0.00930
C653        C  0.87530194  0.48630206  0.08693172    -0.11250
C654        C  0.84533565  0.46119523  0.11056967     0.03420
C655        C  0.84586053  0.41035207  0.11138880    -0.10670
H656        H  0.92417075  0.39032635  0.04424015     0.09010
H657        H  0.87579631  0.52552888  0.08677975     0.06540
H658        H  0.82477062  0.39084947  0.13101541     0.06390
C659        C  0.62385555  0.67565759  0.24984676     0.03430
C660        C  0.65306039  0.65019179  0.22657462    -0.12720
C661        C  0.65335471  0.59937061  0.22710172     0.00930
C662        C  0.62282110  0.57419393  0.25027829    -0.11250
C663        C  0.59263177  0.59949662  0.27312339     0.03420
C664        C  0.59359867  0.65033010  0.27292410    -0.10670
H665        H  0.67661618  0.67010890  0.20901468     0.09010
H666        H  0.62272633  0.53496292  0.25067984     0.06540
H667        H  0.57062142  0.67036325  0.29046440     0.06390
O668        O  0.95324566  0.59281045  0.32695080    -0.74130
O669        O  0.54611832  0.52844638  0.05002703    -0.74160
O670        O  0.54494455  0.59290311  0.32609826    -0.74210
O671        O  0.95340636  0.52830996  0.05062306    -0.74260
O672        O  0.95333224  0.46719016  0.01119028    -0.74200
O673        O  0.54495364  0.53160530  0.28681836    -0.74170
O674        O  0.54519153  0.46714538  0.01075964    -0.74150
O675        O  0.95237158  0.53166133  0.28752879    -0.74210
Ni676      Ni  0.99946629  0.56272465  0.02322231     1.25410
Ni677      Ni  0.99897883  0.49726519  0.31429919     1.25360
C678        C  0.93789555  0.57313791  0.29775777     0.88050
C679        C  0.56055040  0.48689788  0.03995425     0.87980
C680        C  0.55949612  0.57322344  0.29660885     0.88010
C681        C  0.93850428  0.48693572  0.04054087     0.88180
O682        O  0.70475246  0.52884637  0.11951115    -0.74130
O683        O  0.79464237  0.59333583  0.17747711    -0.74160
O684        O  0.79730456  0.52911891  0.12169292    -0.74210
O685        O  0.70298181  0.59298924  0.17547886    -0.74260
O686        O  0.70147572  0.53149392  0.21596152    -0.74200
O687        O  0.79591679  0.46774946  0.16228775    -0.74170
O688        O  0.79402286  0.53195439  0.21808584    -0.74150
O689        O  0.70427137  0.46733189  0.16000730    -0.74210
Ni690      Ni  0.74996139  0.56320616  0.14704599     1.25410
Ni691      Ni  0.74885811  0.49750634  0.19058246     1.25360
C692        C  0.69018693  0.48713066  0.12997274     0.88050
C693        C  0.80875942  0.57355751  0.20749106     0.87980
C694        C  0.81167256  0.48758395  0.13284674     0.88010
C695        C  0.68721229  0.57310046  0.20491323     0.88180
C696        C  0.62631305  0.38445570  0.08559091     0.03430
C697        C  0.59534349  0.40995808  0.06315725    -0.12720
C698        C  0.59459737  0.46077878  0.06270226     0.00930
C699        C  0.62556788  0.48610525  0.08482106    -0.11250
C700        C  0.65728011  0.46090070  0.10691220     0.03420
C701        C  0.65783981  0.41010174  0.10672596    -0.10670
H702        H  0.57115463  0.39002339  0.04663831     0.09010
H703        H  0.62501232  0.52532677  0.08484425     0.06540
H704        H  0.68344605  0.39050963  0.12246620     0.06390
C705        C  0.65625626  0.80521738  0.27130861    -0.05480
C706        C  0.62464507  0.83086987  0.24959718     0.00440
C707        C  0.59281165  0.80560769  0.22777735    -0.08130
C708        C  0.59354997  0.75470075  0.22853844    -0.05500
C709        C  0.62516233  0.72904829  0.25024852     0.00430
C710        C  0.65699237  0.75431016  0.27207154    -0.08040
C711        C  0.69127978  0.72738157  0.29608618     0.62340
H712        H  0.68035719  0.82549764  0.28762307     0.13040
H713        H  0.56944916  0.73442035  0.21222395     0.13050
C714        C  0.55851691  0.83253529  0.20376875     0.62580
F715        F  0.71744064  0.75871340  0.31659798    -0.22590
F716        F  0.72030199  0.70065203  0.27427192    -0.19920
F717        F  0.66865493  0.69658037  0.32026625    -0.19600
F718        F  0.58113431  0.86333585  0.17958365    -0.19650
F719        F  0.52950079  0.85926515  0.22558794    -0.19970
F720        F  0.53234941  0.80120252  0.18326321    -0.22650
C721        C  0.90000670  0.80548001  0.22325254    -0.05480
C722        C  0.87499964  0.83082866  0.24963157     0.00440
C723        C  0.84943635  0.80531841  0.27667375    -0.08130
C724        C  0.84982079  0.75443930  0.27645016    -0.05500
C725        C  0.87482802  0.72909052  0.25007160     0.00430
C726        C  0.90039012  0.75460045  0.22302849    -0.08040
C727        C  0.92827415  0.72795645  0.19450014     0.62340
H728        H  0.91939018  0.82597396  0.20296530     0.13040
H729        H  0.83043729  0.73394537  0.29673740     0.13050
C730        C  0.82154895  0.83196138  0.30520067     0.62580
F731        F  0.94996312  0.75953057  0.17032379    -0.22590
F732        F  0.90018548  0.69840971  0.17410233    -0.19920
F733        F  0.96117702  0.69993893  0.21193883    -0.19600
F734        F  0.78864684  0.85997821  0.28776038    -0.19650
F735        F  0.84963466  0.86150829  0.32560088    -0.19970
F736        F  0.79985842  0.80038626  0.32937508    -0.22650
C737        C  0.63693915  0.30787129  0.05251228    -0.05480
C738        C  0.62636894  0.33084467  0.08563201     0.00440
C739        C  0.61386653  0.30270688  0.11700769    -0.08130
C740        C  0.61274136  0.25204331  0.11400010    -0.05500
C741        C  0.62331132  0.22907007  0.08088013     0.00430
C742        C  0.63581336  0.25720813  0.04950443    -0.08040
C743        C  0.64882818  0.23410789  0.01324444     0.62340
H744        H  0.64602216  0.33021878  0.02887603     0.13040
H745        H  0.60365885  0.22969572  0.13763641     0.13050
C746        C  0.60085043  0.32580818  0.15326687     0.62580
F747        F  0.66594267  0.26780289  0.32158315    -0.22590
F748        F  0.61094621  0.21299710  0.99750972    -0.19920
F749        F  0.68203558  0.19923821  0.01914982    -0.19600
F750        F  0.56764046  0.36067477  0.14736023    -0.19650
F751        F  0.63873087  0.34692342  0.16900047    -0.19970
F752        F  0.58373866  0.29211321  0.17826276    -0.22650
C753        C  0.83605421  0.25330383  0.07465618    -0.05480
C754        C  0.87760299  0.22902449  0.08058365     0.00440
C755        C  0.91729914  0.25600598  0.08937848    -0.08130
C756        C  0.91363714  0.30661364  0.09172535    -0.05500
C757        C  0.87208835  0.33089297  0.08579836     0.00430
C758        C  0.83239250  0.30391179  0.07700249    -0.08040
C759        C  0.78638951  0.32779981  0.06960512     0.62340
H760        H  0.80610718  0.23192814  0.06839359     0.13040
H761        H  0.94358402  0.32798924  0.09798856     0.13050
C762        C  0.96330317  0.23211896  0.09677390     0.62580
F763        F  0.75562860  0.29588433  0.05419259    -0.22590
F764        F  0.79139081  0.36655198  0.04540402    -0.19920
F765        F  0.76773615  0.34370171  0.10219574    -0.19600
F766        F  0.98195473  0.21621850  0.06418222    -0.19650
F767        F  0.95830453  0.19336618  0.12097478    -0.19970
F768        F  0.99406451  0.26403482  0.11218542    -0.22650
C769        C  0.87690404  0.17528660  0.41324507     0.03430
C770        C  0.90383414  0.14956120  0.38833582    -0.12720
C771        C  0.90436911  0.09871813  0.38916635     0.00930
C772        C  0.87440617  0.07361419  0.41280914    -0.11250
C773        C  0.84504501  0.09898584  0.43620469     0.03420
C774        C  0.84741324  0.14971750  0.43697556    -0.10670
H775        H  0.92492187  0.16906128  0.36870630     0.09010
H776        H  0.87392048  0.03438712  0.41297179     0.06540
H777        H  0.82552477  0.16959619  0.45548361     0.06390
O778        O  0.54546771  0.09258662  0.33979856    -0.74130
O779        O  0.95576603  0.02796473  0.61500368    -0.74160
O780        O  0.95382411  0.09216506  0.33747012    -0.74210
O781        O  0.54831133  0.02842832  0.61717631    -0.74260
O782        O  0.54677707  0.96693147  0.65765675    -0.74200
O783        O  0.95240756  0.03079356  0.37806229    -0.74170
O784        O  0.95511836  0.96658014  0.65560950    -0.74150
O785        O  0.54495814  0.03106970  0.38029246    -0.74210
Ni786      Ni  0.00090704  0.06241240  0.64253215     1.25410
Ni787      Ni  0.99977289  0.99671004  0.35273251     1.25360
C788        C  0.55953004  0.07278632  0.36983934     0.88050
C789        C  0.94102396  0.98636002  0.62558911     0.87980
C790        C  0.93804661  0.07232885  0.36690288     0.88010
C791        C  0.56256816  0.98682177  0.62823055     0.88180
C792        C  0.62336965  0.17545906  0.41425325     0.03430
C793        C  0.59184807  0.14981290  0.39311356    -0.12720
C794        C  0.59242082  0.09901479  0.39291505     0.00930
C795        C  0.62413856  0.07380992  0.41500054    -0.11250
C796        C  0.65510515  0.09913581  0.43712365     0.03380
C797        C  0.65434618  0.14995659  0.43668058    -0.10670
H798        H  0.56623914  0.16940392  0.37737552     0.09010
H799        H  0.62470530  0.03458882  0.41496565     0.06540
H800        H  0.67853349  0.16989175  0.45320059     0.06390
C801        C  0.87617284  0.88418241  0.58154785     0.03430
C802        C  0.90721691  0.90944711  0.60334720    -0.12720
C803        C  0.90790648  0.96025958  0.60266896     0.00930
C804        C  0.87698828  0.98564897  0.57997482    -0.11250
C805        C  0.84583548  0.96049879  0.55792325     0.03420
C806        C  0.84608219  0.90967730  0.55848791    -0.10670
H807        H  0.93089538  0.88937772  0.62071339     0.09010
H808        H  0.87700135  0.02488068  0.57962604     0.06540
H809        H  0.82194136  0.88979945  0.54188700     0.06390
O810        O  0.79741488  0.02825767  0.54556093    -0.74130
O811        O  0.70454833  0.09276975  0.48904395    -0.74160
O812        O  0.70483265  0.02830964  0.54631788    -0.74210
O813        O  0.79640763  0.09272981  0.48856697    -0.74260
O814        O  0.79630620  0.03161020  0.44913397    -0.74200
O815        O  0.70481490  0.96701153  0.50703818    -0.74170
O816        O  0.70359445  0.03146925  0.44977672    -0.74150
O817        O  0.79651380  0.96710981  0.50613840    -0.74210
Ni818      Ni  0.75078539  0.06265202  0.51881423     1.25410
Ni819      Ni  0.75026853  0.99719303  0.47655769     1.25360
C820        C  0.81188580  0.98678253  0.53532390     0.88050
C821        C  0.68916826  0.07301700  0.45985663     0.87980
C822        C  0.69028389  0.98669110  0.53653423     0.88010
C823        C  0.81121488  0.07298465  0.45920946     0.88180
C824        C  0.62595346  0.88426075  0.58332846     0.03430
C825        C  0.59674542  0.90972991  0.60659571    -0.12720
C826        C  0.59644035  0.96055109  0.60605618     0.00930
C827        C  0.62697007  0.98572495  0.58287425    -0.11250
C828        C  0.65716227  0.96041926  0.56003350     0.03420
C829        C  0.65620466  0.90958543  0.56024424    -0.10670
H830        H  0.57319166  0.88981437  0.62415846     0.09010
H831        H  0.62705577  0.02495600  0.58246150     0.06540
H832        H  0.67918193  0.88955043  0.54270519     0.06390
C833        C  0.87365340  0.67573691  0.58482470     0.03430
C834        C  0.90373466  0.65024357  0.60789371    -0.12720
C835        C  0.90396418  0.59942223  0.60847483     0.00930
C836        C  0.87280565  0.57427093  0.58642955    -0.11250
C837        C  0.84189503  0.59965893  0.56372761     0.03420
C838        C  0.84260210  0.65047132  0.56303249    -0.10670
H839        H  0.92787779  0.67012143  0.62449251     0.09010
H840        H  0.87277826  0.53503917  0.58679337     0.06540
H841        H  0.81892726  0.67054034  0.54566285     0.06390
C842        C  0.87278734  0.38463065  0.41980816     0.03430
C843        C  0.90228291  0.41020283  0.39608338    -0.12720
C844        C  0.90466026  0.46093360  0.39686525     0.00930
C845        C  0.87530194  0.48630206  0.42026506    -0.11250
C846        C  0.84533566  0.46119523  0.44390301     0.03420
C847        C  0.84586054  0.41035207  0.44472215    -0.10670
H848        H  0.92417076  0.39032635  0.37757349     0.09010
H849        H  0.87579631  0.52552889  0.42011308     0.06540
H850        H  0.82477064  0.39084947  0.46434876     0.06390
C851        C  0.62385555  0.67565760  0.58318008     0.03430
C852        C  0.65306038  0.65019179  0.55990794    -0.12720
C853        C  0.65335471  0.59937061  0.56043505     0.00930
C854        C  0.62282110  0.57419393  0.58361162    -0.11250
C855        C  0.59263177  0.59949663  0.60645672     0.03420
C856        C  0.59359867  0.65033010  0.60625743    -0.10670
H857        H  0.67661618  0.67010890  0.54234800     0.09010
H858        H  0.62272633  0.53496293  0.58401317     0.06540
H859        H  0.57062142  0.67036325  0.62379772     0.06390
O860        O  0.95324566  0.59281046  0.66028413    -0.74130
O861        O  0.54611832  0.52844638  0.38336036    -0.74160
O862        O  0.54494454  0.59290312  0.65943159    -0.74210
O863        O  0.95340636  0.52830996  0.38395639    -0.74260
O864        O  0.95333224  0.46719016  0.34452362    -0.74200
O865        O  0.54495364  0.53160531  0.62015169    -0.74170
O866        O  0.54519153  0.46714538  0.34409298    -0.74150
O867        O  0.95237158  0.53166134  0.62086212    -0.74210
Ni868      Ni  0.99946629  0.56272465  0.35655564     1.25410
Ni869      Ni  0.99897883  0.49726519  0.64763252     1.25360
C870        C  0.93789555  0.57313791  0.63109110     0.88050
C871        C  0.56055039  0.48689788  0.37328759     0.87980
C872        C  0.55949612  0.57322345  0.62994218     0.88010
C873        C  0.93850429  0.48693573  0.37387421     0.88180
O874        O  0.70475247  0.52884637  0.45284448    -0.74130
O875        O  0.79464237  0.59333583  0.51081045    -0.74160
O876        O  0.79730456  0.52911891  0.45502626    -0.74210
O877        O  0.70298181  0.59298924  0.50881219    -0.74260
O878        O  0.70147572  0.53149393  0.54929485    -0.74200
O879        O  0.79591679  0.46774946  0.49562109    -0.74170
O880        O  0.79402286  0.53195440  0.55141917    -0.74150
O881        O  0.70427137  0.46733189  0.49334063    -0.74210
Ni882      Ni  0.74996139  0.56320616  0.48037932     1.25410
Ni883      Ni  0.74885811  0.49750635  0.52391579     1.25360
C884        C  0.69018693  0.48713066  0.46330608     0.88050
C885        C  0.80875942  0.57355752  0.54082439     0.87980
C886        C  0.81167256  0.48758395  0.46618008     0.88010
C887        C  0.68721229  0.57310046  0.53824656     0.88180
C888        C  0.62631304  0.38445570  0.41892425     0.03430
C889        C  0.59534348  0.40995808  0.39649058    -0.12720
C890        C  0.59459737  0.46077878  0.39603560     0.00930
C891        C  0.62556788  0.48610525  0.41815439    -0.11250
C892        C  0.65728011  0.46090070  0.44024554     0.03420
C893        C  0.65783981  0.41010174  0.44005930    -0.10670
H894        H  0.57115462  0.39002339  0.37997165     0.09010
H895        H  0.62501232  0.52532677  0.41817759     0.06540
H896        H  0.68344604  0.39050963  0.45579953     0.06390
C897        C  0.65625626  0.80521738  0.60464193    -0.05480
C898        C  0.62464506  0.83086988  0.58293051     0.00440
C899        C  0.59281164  0.80560770  0.56111069    -0.08130
C900        C  0.59354996  0.75470076  0.56187178    -0.05500
C901        C  0.62516232  0.72904830  0.58358185     0.00430
C902        C  0.65699237  0.75431016  0.60540486    -0.08040
C903        C  0.69127979  0.72738157  0.62941949     0.62340
H904        H  0.68035720  0.82549764  0.62095639     0.13040
H905        H  0.56944915  0.73442036  0.54555730     0.13050
C906        C  0.55851689  0.83253530  0.53710210     0.62580
F907        F  0.71744065  0.75871340  0.64993129    -0.22590
F908        F  0.72030200  0.70065204  0.60760523    -0.19920
F909        F  0.66865495  0.69658037  0.65359956    -0.19600
F910        F  0.58113428  0.86333587  0.51291700    -0.19650
F911        F  0.52950078  0.85926516  0.55892130    -0.19970
F912        F  0.53234938  0.80120254  0.51659656    -0.22650
C913        C  0.90000671  0.80548001  0.55658587    -0.05480
C914        C  0.87499965  0.83082867  0.58296490     0.00440
C915        C  0.84943635  0.80531842  0.61000708    -0.08130
C916        C  0.84982079  0.75443931  0.60978348    -0.05500
C917        C  0.87482802  0.72909053  0.58340493     0.00430
C918        C  0.90039013  0.75460045  0.55636182    -0.08040
C919        C  0.92827416  0.72795646  0.52783348     0.62340
H920        H  0.91939019  0.82597396  0.53629864     0.13040
H921        H  0.83043728  0.73394537  0.63007073     0.13050
C922        C  0.82154895  0.83196139  0.63853399     0.62580
F923        F  0.94996314  0.75953057  0.50365713    -0.22590
F924        F  0.90018550  0.69840971  0.50743566    -0.19920
F925        F  0.96117703  0.69993894  0.54527217    -0.19600
F926        F  0.78864684  0.85997822  0.62109371    -0.19650
F927        F  0.84963466  0.86150830  0.65893420    -0.19970
F928        F  0.79985842  0.80038627  0.66270841    -0.22650
C929        C  0.63693915  0.30787130  0.38584562    -0.05480
C930        C  0.62636894  0.33084467  0.41896535     0.00440
C931        C  0.61386652  0.30270688  0.45034102    -0.08130
C932        C  0.61274135  0.25204331  0.44733344    -0.05500
C933        C  0.62331131  0.22907007  0.41421346     0.00430
C934        C  0.63581336  0.25720813  0.38283777    -0.08040
C935        C  0.64882818  0.23410789  0.34657777     0.62340
H936        H  0.64602217  0.33021878  0.36220937     0.13040
H937        H  0.60365884  0.22969571  0.47096974     0.13050
C938        C  0.60085042  0.32580818  0.48660021     0.62580
F939        F  0.66594266  0.26780289  0.65491649    -0.22590
F940        F  0.61094622  0.21299710  0.33084306    -0.19920
F941        F  0.68203559  0.19923821  0.35248316    -0.19600
F942        F  0.56764045  0.36067476  0.48069356    -0.19650
F943        F  0.63873085  0.34692342  0.50233380    -0.19970
F944        F  0.58373865  0.29211320  0.51159610    -0.22650
C945        C  0.83605422  0.25330383  0.40798953    -0.05480
C946        C  0.87760301  0.22902449  0.41391700     0.00440
C947        C  0.91729915  0.25600598  0.42271183    -0.08130
C948        C  0.91363716  0.30661365  0.42505870    -0.05500
C949        C  0.87208837  0.33089297  0.41913171     0.00430
C950        C  0.83239252  0.30391179  0.41033584    -0.08040
C951        C  0.78638952  0.32779981  0.40293847     0.62340
H952        H  0.80610719  0.23192814  0.40172694     0.13040
H953        H  0.94358403  0.32798924  0.43132191     0.13050
C954        C  0.96330318  0.23211896  0.43010725     0.62580
F955        F  0.75562861  0.29588433  0.38752594    -0.22590
F956        F  0.79139082  0.36655198  0.37873737    -0.19920
F957        F  0.76773617  0.34370171  0.43552909    -0.19600
F958        F  0.98195474  0.21621850  0.39751558    -0.19650
F959        F  0.95830454  0.19336618  0.45430814    -0.19970
F960        F  0.99406452  0.26403482  0.44551877    -0.22650
C961        C  0.87690404  0.17528661  0.74657840     0.03430
C962        C  0.90383414  0.14956120  0.72166915    -0.12720
C963        C  0.90436911  0.09871814  0.72249968     0.00930
C964        C  0.87440617  0.07361420  0.74614248    -0.11250
C965        C  0.84504501  0.09898585  0.76953802     0.03420
C966        C  0.84741324  0.14971751  0.77030889    -0.10670
H967        H  0.92492186  0.16906128  0.70203962     0.09010
H968        H  0.87392049  0.03438712  0.74630512     0.06540
H969        H  0.82552477  0.16959620  0.78881694     0.06390
O970        O  0.54546771  0.09258663  0.67313189    -0.74130
O971        O  0.95576603  0.02796473  0.94833702    -0.74160
O972        O  0.95382411  0.09216507  0.67080345    -0.74210
O973        O  0.54831133  0.02842832  0.95050964    -0.74260
O974        O  0.54677707  0.96693147  0.99099008    -0.74200
O975        O  0.95240756  0.03079356  0.71139562    -0.74170
O976        O  0.95511836  0.96658014  0.98894283    -0.74150
O977        O  0.54495813  0.03106971  0.71362579    -0.74210
Ni978      Ni  0.00090704  0.06241240  0.97586549     1.25410
Ni979      Ni  0.99977289  0.99671005  0.68606584     1.25360
C980        C  0.55953004  0.07278633  0.70317268     0.88050
C981        C  0.94102396  0.98636002  0.95892244     0.87980
C982        C  0.93804661  0.07232885  0.70023621     0.88010
C983        C  0.56256816  0.98682177  0.96156388     0.88180
C984        C  0.62336965  0.17545907  0.74758659     0.03430
C985        C  0.59184807  0.14981291  0.72644690    -0.12720
C986        C  0.59242082  0.09901480  0.72624839     0.00930
C987        C  0.62413856  0.07380993  0.74833387    -0.11250
C988        C  0.65510515  0.09913582  0.77045698     0.03380
C989        C  0.65434618  0.14995660  0.77001391    -0.10670
H990        H  0.56623914  0.16940393  0.71070885     0.09010
H991        H  0.62470529  0.03458883  0.74829899     0.06540
H992        H  0.67853349  0.16989175  0.78653393     0.06390
C993        C  0.87617284  0.88418241  0.91488118     0.03430
C994        C  0.90721691  0.90944711  0.93668053    -0.12720
C995        C  0.90790648  0.96025958  0.93600229     0.00930
C996        C  0.87698828  0.98564897  0.91330815    -0.11250
C997        C  0.84583548  0.96049880  0.89125658     0.03420
C998        C  0.84608219  0.90967730  0.89182124    -0.10670
H999        H  0.93089538  0.88937772  0.95404673     0.09010
H1000       H  0.87700135  0.02488068  0.91295937     0.06540
H1001       H  0.82194136  0.88979945  0.87522033     0.06390
O1002       O  0.79741488  0.02825767  0.87889426    -0.74130
O1003       O  0.70454833  0.09276976  0.82237729    -0.74160
O1004       O  0.70483265  0.02830965  0.87965121    -0.74210
O1005       O  0.79640764  0.09272981  0.82190030    -0.74260
O1006       O  0.79630620  0.03161020  0.78246730    -0.74200
O1007       O  0.70481490  0.96701154  0.84037152    -0.74170
O1008       O  0.70359445  0.03146926  0.78311005    -0.74150
O1009       O  0.79651380  0.96710982  0.83947173    -0.74210
Ni1010     Ni  0.75078539  0.06265203  0.85214757     1.25410
Ni1011     Ni  0.75026853  0.99719303  0.80989102     1.25360
C1012       C  0.81188580  0.98678253  0.86865723     0.88050
C1013       C  0.68916826  0.07301700  0.79318996     0.87980
C1014       C  0.69028390  0.98669111  0.86986757     0.88010
C1015       C  0.81121488  0.07298465  0.79254279     0.88180
C1016       C  0.62595347  0.88426075  0.91666179     0.03430
C1017       C  0.59674542  0.90972991  0.93992905    -0.12720
C1018       C  0.59644035  0.96055109  0.93938951     0.00930
C1019       C  0.62697007  0.98572495  0.91620758    -0.11250
C1020       C  0.65716228  0.96041926  0.89336683     0.03420
C1021       C  0.65620467  0.90958544  0.89357758    -0.10670
H1022       H  0.57319166  0.88981437  0.95749179     0.09010
H1023       H  0.62705577  0.02495600  0.91579483     0.06540
H1024       H  0.67918194  0.88955043  0.87603853     0.06390
C1025       C  0.87365340  0.67573691  0.91815805     0.03430
C1026       C  0.90373466  0.65024357  0.94122705    -0.12720
C1027       C  0.90396418  0.59942223  0.94180817     0.00930
C1028       C  0.87280565  0.57427093  0.91976288    -0.11250
C1029       C  0.84189503  0.59965893  0.89706094     0.03420
C1030       C  0.84260210  0.65047132  0.89636583    -0.10670
H1031       H  0.92787778  0.67012142  0.95782585     0.09010
H1032       H  0.87277826  0.53503917  0.92012671     0.06540
H1033       H  0.81892726  0.67054035  0.87899618     0.06390
C1034       C  0.87278734  0.38463066  0.75314149     0.03430
C1035       C  0.90228291  0.41020283  0.72941671    -0.12720
C1036       C  0.90466025  0.46093361  0.73019858     0.00930
C1037       C  0.87530194  0.48630207  0.75359839    -0.11250
C1038       C  0.84533566  0.46119523  0.77723634     0.03420
C1039       C  0.84586054  0.41035208  0.77805548    -0.10670
H1040       H  0.92417076  0.39032636  0.71090682     0.09010
H1041       H  0.87579631  0.52552889  0.75344641     0.06540
H1042       H  0.82477064  0.39084948  0.79768209     0.06390
C1043       C  0.62385554  0.67565760  0.91651342     0.03430
C1044       C  0.65306038  0.65019179  0.89324128    -0.12720
C1045       C  0.65335471  0.59937062  0.89376839     0.00930
C1046       C  0.62282110  0.57419393  0.91694495    -0.11250
C1047       C  0.59263177  0.59949663  0.93979005     0.03420
C1048       C  0.59359867  0.65033011  0.93959077    -0.10670
H1049       H  0.67661618  0.67010891  0.87568134     0.09010
H1050       H  0.62272633  0.53496293  0.91734650     0.06540
H1051       H  0.57062141  0.67036325  0.95713106     0.06390
O1052       O  0.95324566  0.59281045  0.99361746    -0.74130
O1053       O  0.54611832  0.52844639  0.71669369    -0.74160
O1054       O  0.54494454  0.59290311  0.99276493    -0.74210
O1055       O  0.95340636  0.52830997  0.71728972    -0.74260
O1056       O  0.95333224  0.46719017  0.67785695    -0.74200
O1057       O  0.54495364  0.53160531  0.95348502    -0.74170
O1058       O  0.54519153  0.46714539  0.67742631    -0.74150
O1059       O  0.95237158  0.53166134  0.95419545    -0.74210
Ni1060     Ni  0.99946629  0.56272466  0.68988897     1.25410
Ni1061     Ni  0.99897883  0.49726519  0.98096586     1.25360
C1062       C  0.93789555  0.57313791  0.96442444     0.88050
C1063       C  0.56055039  0.48689789  0.70662092     0.87980
C1064       C  0.55949612  0.57322345  0.96327552     0.88010
C1065       C  0.93850428  0.48693573  0.70720754     0.88180
O1066       O  0.70475247  0.52884638  0.78617781    -0.74130
O1067       O  0.79464237  0.59333584  0.84414378    -0.74160
O1068       O  0.79730456  0.52911892  0.78835959    -0.74210
O1069       O  0.70298181  0.59298925  0.84214553    -0.74260
O1070       O  0.70147572  0.53149393  0.88262818    -0.74200
O1071       O  0.79591679  0.46774947  0.82895442    -0.74170
O1072       O  0.79402286  0.53195440  0.88475251    -0.74150
O1073       O  0.70427137  0.46733190  0.82667397    -0.74210
Ni1074     Ni  0.74996139  0.56320617  0.81371265     1.25410
Ni1075     Ni  0.74885811  0.49750635  0.85724912     1.25360
C1076       C  0.69018693  0.48713067  0.79663941     0.88050
C1077       C  0.80875942  0.57355752  0.87415773     0.87980
C1078       C  0.81167256  0.48758396  0.79951341     0.88010
C1079       C  0.68721229  0.57310047  0.87157989     0.88180
C1080       C  0.62631304  0.38445571  0.75225759     0.03430
C1081       C  0.59534348  0.40995808  0.72982392    -0.12720
C1082       C  0.59459737  0.46077878  0.72936893     0.00930
C1083       C  0.62556788  0.48610526  0.75148773    -0.11250
C1084       C  0.65728011  0.46090070  0.77357887     0.03420
C1085       C  0.65783981  0.41010175  0.77339263    -0.10670
H1086       H  0.57115462  0.39002339  0.71330498     0.09010
H1087       H  0.62501232  0.52532678  0.75151092     0.06540
H1088       H  0.68344604  0.39050964  0.78913287     0.06390
C1089       C  0.65625624  0.80521738  0.93797530    -0.05480
C1090       C  0.62464507  0.83086988  0.91626384     0.00440
C1091       C  0.59281168  0.80560771  0.89444399    -0.08130
C1092       C  0.59354999  0.75470076  0.89520508    -0.05500
C1093       C  0.62516232  0.72904830  0.91691518     0.00430
C1094       C  0.65699234  0.75431016  0.93873823    -0.08040
C1095       C  0.69127973  0.72738157  0.96275289     0.62340
H1096       H  0.68035715  0.82549764  0.95428978     0.13040
H1097       H  0.56944921  0.73442037  0.87889058     0.13050
C1098       C  0.55851697  0.83253531  0.87043537     0.62580
F1099       F  0.71744057  0.75871339  0.98326471    -0.22590
F1100       F  0.72030195  0.70065203  0.94093865    -0.19920
F1101       F  0.66865485  0.69658037  0.98693295    -0.19600
F1102       F  0.58113440  0.86333587  0.84625029    -0.19650
F1103       F  0.52950083  0.85926518  0.89225454    -0.19970
F1104       F  0.53234948  0.80120255  0.84992981    -0.22650
C1105       C  0.90000673  0.80548001  0.88991922    -0.05480
C1106       C  0.87499965  0.83082867  0.91629823     0.00440
C1107       C  0.84943632  0.80531842  0.94334040    -0.08130
C1108       C  0.84982077  0.75443931  0.94311681    -0.05500
C1109       C  0.87482802  0.72909053  0.91673827     0.00430
C1110       C  0.90039015  0.75460045  0.88969518    -0.08040
C1111       C  0.92827421  0.72795645  0.86116685     0.62340
H1112       H  0.91939023  0.82597395  0.86963200     0.13040
H1113       H  0.83043723  0.73394538  0.96340404     0.13050
C1114       C  0.82154890  0.83196140  0.97186730     0.62580
F1115       F  0.94996321  0.75953057  0.83699051    -0.22590
F1116       F  0.90018557  0.69840969  0.84076902    -0.19920
F1117       F  0.96117707  0.69993894  0.87860556    -0.19600
F1118       F  0.78864680  0.85997822  0.95442699    -0.19650
F1119       F  0.84963459  0.86150831  0.99226752    -0.19970
F1120       F  0.79985835  0.80038628  0.99604170    -0.22650
C1121       C  0.63693914  0.30787130  0.71917895    -0.05480
C1122       C  0.62636894  0.33084467  0.75229868     0.00440
C1123       C  0.61386652  0.30270689  0.78367436    -0.08130
C1124       C  0.61274135  0.25204332  0.78066677    -0.05500
C1125       C  0.62331131  0.22907008  0.74754680     0.00430
C1126       C  0.63581336  0.25720813  0.71617110    -0.08040
C1127       C  0.64882818  0.23410789  0.67991111     0.62340
H1128       H  0.64602216  0.33021878  0.69554270     0.13040
H1129       H  0.60365884  0.22969572  0.80430308     0.13050
C1130       C  0.60085042  0.32580819  0.81993354     0.62580
F1131       F  0.66594266  0.26780289  0.98824981    -0.22590
F1132       F  0.61094621  0.21299711  0.66417639    -0.19920
F1133       F  0.68203558  0.19923822  0.68581649    -0.19600
F1134       F  0.56764045  0.36067477  0.81402689    -0.19650
F1135       F  0.63873085  0.34692343  0.83566714    -0.19970
F1136       F  0.58373865  0.29211321  0.84492943    -0.22650
C1137       C  0.83605422  0.25330384  0.74132286    -0.05480
C1138       C  0.87760300  0.22902449  0.74725033     0.00440
C1139       C  0.91729915  0.25600598  0.75604515    -0.08130
C1140       C  0.91363716  0.30661365  0.75839203    -0.05500
C1141       C  0.87208837  0.33089298  0.75246504     0.00430
C1142       C  0.83239251  0.30391180  0.74366918    -0.08040
C1143       C  0.78638951  0.32779981  0.73627182     0.62340
H1144       H  0.80610719  0.23192814  0.73506028     0.13040
H1145       H  0.94358404  0.32798925  0.76465522     0.13050
C1146       C  0.96330318  0.23211896  0.76344056     0.62580
F1147       F  0.75562861  0.29588433  0.72085930    -0.22590
F1148       F  0.79139080  0.36655199  0.71207073    -0.19920
F1149       F  0.76773617  0.34370170  0.76886245    -0.19600
F1150       F  0.98195474  0.21621852  0.73084888    -0.19650
F1151       F  0.95830456  0.19336618  0.78764144    -0.19970
F1152       F  0.99406453  0.26403483  0.77885208    -0.22650
loop_ 
_geom_bond_atom_site_label_1 
_geom_bond_atom_site_label_2 
_geom_bond_distance 
_geom_bond_site_symmetry_2 
_ccdc_geom_bond_type 
C1            C2   1.401       .  A
C1            C6   1.404       .  A
C1          C178   1.485       .  S
C2            C3   1.405       .  A
C2            H7   1.081       .  S
C3            C4   1.404       .  A
C3           C22   1.475       .  S
C4            C5   1.403       .  A
C4            H8   1.084       .  S
C5            C6   1.404       .  A
C5           C55   1.476       .  S
C6            H9   1.084       .  S
O10          C20   1.281       .  A
O10        Ni978   1.914   1_554  S
O11          C21   1.282   1_545  A
O11         Ni18   1.919       .  S
O12          C22   1.280       .  A
O12        Ni402   1.912   1_554  S
O13          C23   1.282   1_545  A
O13        Ni594   1.919       .  S
O14          C23   1.281       .  A
O14        Ni787   1.913   1_455  S
O15          C22   1.282       .  A
O15         Ni19   1.919   1_545  S
O16          C21   1.281       .  A
O16        Ni211   1.912       .  S
O17          C20   1.281       .  A
O17        Ni595   1.919   1_445  S
Ni18        O778   1.914       .  S
Ni18        O204   1.912       .  S
Ni18        O589   1.919       .  S
Ni18       Ni211   2.390   1_545  S
Ni19        O974   1.913   1_554  S
Ni19        O400   1.912   1_554  S
Ni19        O593   1.919   1_565  S
Ni19       Ni402   2.390   1_564  S
C20          C26   1.475       .  S
C21          C35   1.474       .  S
C23          C58   1.475       .  S
C24          C25   1.400       .  A
C24          C29   1.402       .  A
C24         C165   1.481       .  S
C25          C26   1.404       .  A
C25          H30   1.083       .  S
C26          C27   1.405       .  A
C27          C28   1.405       .  A
C27          H31   1.084       .  S
C28          C29   1.404       .  A
C28          C53   1.476       .  S
C29          H32   1.084       .  S
C33          C34   1.399       .  A
C33          C38   1.399       .  A
C33         C146   1.475       .  S
C34          C35   1.404       .  A
C34          H39   1.084       .  S
C35          C36   1.405       .  A
C36          C37   1.405       .  A
C36          H40   1.084   1_565  S
C37          C38   1.404       .  A
C37          C52   1.474       .  S
C38          H41   1.084       .  S
O42          C52   1.282   1_545  A
O42         Ni50   1.919       .  S
O43          C53   1.281       .  A
O43         Ni50   1.915       .  S
O44          C54   1.282   1_545  A
O44         Ni50   1.919       .  S
O45          C55   1.280       .  A
O45         Ni50   1.912       .  S
O46          C55   1.282       .  A
O46         Ni51   1.920   1_545  S
O47          C54   1.281       .  A
O47         Ni51   1.915       .  S
O48          C53   1.281       .  A
O48         Ni51   1.919   1_545  S
O49          C52   1.280       .  A
O49         Ni51   1.911       .  S
Ni50        Ni51   2.389   1_545  S
C54          C60   1.476       .  S
C56          C57   1.399       .  A
C56          C61   1.400       .  A
C56         C130   1.476       .  S
C57          C58   1.404       .  A
C57          H62   1.084       .  S
C58          C59   1.405       .  A
C59          C60   1.405       .  A
C59          H63   1.084   1_565  S
C60          C61   1.405       .  A
C61          H64   1.084       .  S
C65          C66   1.399       .  A
C65          C70   1.399       .  A
C65         C149   1.475       .  S
C66          C67   1.404       .  A
C66          H71   1.084       .  S
C67          C68   1.405       .  A
C67         C102   1.473       .  S
C68          C69   1.405       .  A
C68          H72   1.084       .  S
C69          C70   1.404       .  A
C69         C117   1.474       .  S
C70          H73   1.084       .  S
C74          C75   1.404       .  A
C74          C79   1.401       .  A
C74         C181   1.485       .  S
C75          C76   1.404       .  A
C75          H80   1.084       .  S
C76          C77   1.403       .  A
C76         C105   1.476       .  S
C77          C78   1.404       .  A
C77          H81   1.084       .  S
C78          C79   1.405       .  A
C78         C118   1.475       .  S
C79          H82   1.081       .  S
C83          C84   1.399       .  A
C83          C88   1.400       .  A
C83         C133   1.476       .  S
C84          C85   1.404       .  A
C84          H89   1.084       .  S
C85          C86   1.405       .  A
C85         C119   1.475       .  S
C86          C87   1.405       .  A
C86          H90   1.084       .  S
C87          C88   1.405       .  A
C87         C104   1.476       .  S
C88          H91   1.084       .  S
O92         C102   1.280       .  A
O92        Ni292   1.911       .  S
O93         C103   1.281       .  A
O93        Ni676   1.919   1_455  S
O94         C104   1.281       .  A
O94        Ni868   1.915   1_455  S
O95         C105   1.282       .  A
O95        Ni100   1.920       .  S
O96         C105   1.280       .  A
O96        Ni485   1.912   1_554  S
O97         C104   1.282       .  A
O97        Ni677   1.919   1_455  S
O98         C103   1.281       .  A
O98       Ni1061   1.915   1_454  S
O99         C102   1.282       .  A
O99        Ni101   1.919       .  S
Ni100       O476   1.911   1_554  S
Ni100       O669   1.919       .  S
Ni100      O1054   1.915   1_554  S
Ni100      Ni485   2.389   1_554  S
Ni101       O288   1.912       .  S
Ni101       O673   1.919       .  S
Ni101       O866   1.915       .  S
Ni101      Ni292   2.389       .  S
C103        C122   1.476       .  S
O106        C116   1.281       .  A
O106       Ni114   1.919       .  S
O107        C117   1.281       .  A
O107       Ni114   1.912       .  S
O108        C118   1.282       .  A
O108       Ni114   1.919       .  S
O109        C119   1.281       .  A
O109       Ni114   1.913       .  S
O110        C119   1.282       .  A
O110       Ni115   1.919       .  S
O111        C118   1.280       .  A
O111       Ni115   1.912       .  S
O112        C117   1.282       .  A
O112       Ni115   1.919       .  S
O113        C116   1.281       .  A
O113       Ni115   1.914       .  S
Ni114      Ni115   2.390       .  S
C116        C124   1.475       .  S
C120        C121   1.402       .  A
C120        C125   1.400       .  A
C120        C162   1.481       .  S
C121        C122   1.404       .  A
C121        H126   1.084       .  S
C122        C123   1.405       .  A
C123        C124   1.405       .  A
C123        H127   1.084       .  S
C124        C125   1.404       .  A
C125        H128   1.083       .  S
C129        C130   1.401       .  A
C129        C134   1.406       .  A
C129        H136   1.083       .  S
C130        C131   1.415       .  A
C131        C132   1.406       .  A
C131        C138   1.517       .  S
C132        C133   1.401       .  A
C132        H137   1.083       .  S
C133        C134   1.415       .  A
C134        C135   1.517       .  S
C135        F139   1.382       .  S
C135        F140   1.383       .  S
C135        F141   1.383       .  S
C138        F142   1.383       .  S
C138        F143   1.383       .  S
C138        F144   1.382       .  S
C145        C146   1.401       .  A
C145        C150   1.406       .  A
C145        H152   1.083       .  S
C146        C147   1.415       .  A
C147        C148   1.406       .  A
C147        C154   1.518       .  S
C148        C149   1.401       .  A
C148        H153   1.083       .  S
C149        C150   1.415       .  A
C150        C151   1.518       .  S
C151        F155   1.383       .  S
C151        F156   1.382       .  S
C151        F157   1.383       .  S
C154        F158   1.383       .  S
C154        F159   1.382       .  S
C154        F160   1.383       .  S
C161        C162   1.403       .  A
C161        C166   1.406       .  A
C161        H168   1.083       .  S
C162        C163   1.418       .  A
C163        C164   1.406       .  A
C163        C170   1.520       .  S
C164        C165   1.403       .  A
C164        H169   1.083       .  S
C165        C166   1.418       .  A
C166        C167   1.520       .  S
C167        F172   1.381   1_554  S
C167        F173   1.383       .  S
C167        F555   1.385   1_554  S
C170        F174   1.383       .  S
C170        F175   1.381       .  S
C170        F176   1.385       .  S
F171        C359   1.385       .  S
C177        C178   1.404       .  A
C177        C182   1.406       .  A
C177        H184   1.084       .  S
C178        C179   1.420       .  A
C179        C180   1.406       .  A
C179        C186   1.522       .  S
C180        C181   1.404       .  A
C180        H185   1.084       .  S
C181        C182   1.420       .  A
C182        C183   1.522       .  S
C183        F187   1.385       .  S
C183        F188   1.383       .  S
C183        F189   1.381       .  S
C186        F190   1.381       .  S
C186        F191   1.383       .  S
C186        F192   1.385       .  S
C193        C194   1.401       .  A
C193        C198   1.404       .  A
C193        C370   1.485       .  S
C194        C195   1.405       .  A
C194        H199   1.081       .  S
C195        C196   1.404       .  A
C195        C214   1.475       .  S
C196        C197   1.403       .  A
C196        H200   1.084       .  S
C197        C198   1.404       .  A
C197        C247   1.476       .  S
C198        H201   1.084       .  S
O202        C212   1.281       .  A
O202       Ni594   1.914       .  S
O203        C213   1.282   1_545  A
O203       Ni210   1.919       .  S
O204        C214   1.280       .  A
O205        C215   1.282   1_545  A
O205       Ni786   1.919       .  S
O206        C215   1.281       .  A
O206       Ni979   1.913   1_455  S
O207        C214   1.282       .  A
O207       Ni211   1.919   1_545  S
O208        C213   1.281       .  A
O208       Ni403   1.912       .  S
O209        C212   1.281       .  A
O209       Ni787   1.919   1_445  S
Ni210       O970   1.914       .  S
Ni210       O396   1.912       .  S
Ni210       O781   1.919       .  S
Ni210      Ni403   2.390   1_545  S
Ni211       O590   1.913       .  S
Ni211       O785   1.919   1_565  S
C212        C218   1.475       .  S
C213        C227   1.474       .  S
C215        C250   1.475       .  S
C216        C217   1.400       .  A
C216        C221   1.402       .  A
C216        C357   1.481       .  S
C217        C218   1.404       .  A
C217        H222   1.083       .  S
C218        C219   1.405       .  A
C219        C220   1.405       .  A
C219        H223   1.084       .  S
C220        C221   1.404       .  A
C220        C245   1.476       .  S
C221        H224   1.084       .  S
C225        C226   1.399       .  A
C225        C230   1.399       .  A
C225        C338   1.475       .  S
C226        C227   1.404       .  A
C226        H231   1.084       .  S
C227        C228   1.405       .  A
C228        C229   1.405       .  A
C228        H232   1.084   1_565  S
C229        C230   1.404       .  A
C229        C244   1.474       .  S
C230        H233   1.084       .  S
O234        C244   1.282   1_545  A
O234       Ni242   1.919       .  S
O235        C245   1.281       .  A
O235       Ni242   1.915       .  S
O236        C246   1.282   1_545  A
O236       Ni242   1.919       .  S
O237        C247   1.280       .  A
O237       Ni242   1.912       .  S
O238        C247   1.282       .  A
O238       Ni243   1.920   1_545  S
O239        C246   1.281       .  A
O239       Ni243   1.915       .  S
O240        C245   1.281       .  A
O240       Ni243   1.919   1_545  S
O241        C244   1.280       .  A
O241       Ni243   1.911       .  S
Ni242      Ni243   2.389   1_545  S
C246        C252   1.476       .  S
C248        C249   1.399       .  A
C248        C253   1.400       .  A
C248        C322   1.476       .  S
C249        C250   1.404       .  A
C249        H254   1.084       .  S
C250        C251   1.405       .  A
C251        C252   1.405       .  A
C251        H255   1.084   1_565  S
C252        C253   1.405       .  A
C253        H256   1.084       .  S
C257        C258   1.399       .  A
C257        C262   1.399       .  A
C257        C341   1.475       .  S
C258        C259   1.404       .  A
C258        H263   1.084       .  S
C259        C260   1.405       .  A
C259        C294   1.473       .  S
C260        C261   1.405       .  A
C260        H264   1.084       .  S
C261        C262   1.404       .  A
C261        C309   1.474       .  S
C262        H265   1.084       .  S
C266        C267   1.404       .  A
C266        C271   1.401       .  A
C266        C373   1.485       .  S
C267        C268   1.404       .  A
C267        H272   1.084       .  S
C268        C269   1.403       .  A
C268        C297   1.476       .  S
C269        C270   1.404       .  A
C269        H273   1.084       .  S
C270        C271   1.405       .  A
C270        C310   1.475       .  S
C271        H274   1.081       .  S
C275        C276   1.399       .  A
C275        C280   1.400       .  A
C275        C325   1.476       .  S
C276        C277   1.404       .  A
C276        H281   1.084       .  S
C277        C278   1.405       .  A
C277        C311   1.475       .  S
C278        C279   1.405       .  A
C278        H282   1.084       .  S
C279        C280   1.405       .  A
C279        C296   1.476       .  S
C280        H283   1.084       .  S
O284        C294   1.280       .  A
O284       Ni484   1.911       .  S
O285        C295   1.281       .  A
O285       Ni868   1.919   1_455  S
O286        C296   1.281       .  A
O286      Ni1060   1.915   1_455  S
O287        C297   1.282       .  A
O287       Ni292   1.920       .  S
O288        C297   1.280       .  A
O289        C296   1.282       .  A
O289       Ni869   1.919   1_455  S
O290        C295   1.281       .  A
O290       Ni677   1.915   1_455  S
O291        C294   1.282       .  A
O291       Ni293   1.919       .  S
Ni292       O861   1.919       .  S
Ni292       O670   1.915       .  S
Ni293       O480   1.912       .  S
Ni293       O865   1.919       .  S
Ni293      O1058   1.915       .  S
Ni293      Ni484   2.389       .  S
C295        C314   1.476       .  S
O298        C308   1.281       .  A
O298       Ni306   1.919       .  S
O299        C309   1.281       .  A
O299       Ni306   1.912       .  S
O300        C310   1.282       .  A
O300       Ni306   1.919       .  S
O301        C311   1.281       .  A
O301       Ni306   1.913       .  S
O302        C311   1.282       .  A
O302       Ni307   1.919       .  S
O303        C310   1.280       .  A
O303       Ni307   1.912       .  S
O304        C309   1.282       .  A
O304       Ni307   1.919       .  S
O305        C308   1.281       .  A
O305       Ni307   1.914       .  S
Ni306      Ni307   2.390       .  S
C308        C316   1.475       .  S
C312        C313   1.402       .  A
C312        C317   1.400       .  A
C312        C354   1.481       .  S
C313        C314   1.404       .  A
C313        H318   1.084       .  S
C314        C315   1.405       .  A
C315        C316   1.405       .  A
C315        H319   1.084       .  S
C316        C317   1.404       .  A
C317        H320   1.083       .  S
C321        C322   1.401       .  A
C321        C326   1.406       .  A
C321        H328   1.083       .  S
C322        C323   1.415       .  A
C323        C324   1.406       .  A
C323        C330   1.517       .  S
C324        C325   1.401       .  A
C324        H329   1.083       .  S
C325        C326   1.415       .  A
C326        C327   1.517       .  S
C327        F331   1.382       .  S
C327        F332   1.383       .  S
C327        F333   1.383       .  S
C330        F334   1.383       .  S
C330        F335   1.383       .  S
C330        F336   1.382       .  S
C337        C338   1.401       .  A
C337        C342   1.406       .  A
C337        H344   1.083       .  S
C338        C339   1.415       .  A
C339        C340   1.406       .  A
C339        C346   1.518       .  S
C340        C341   1.401       .  A
C340        H345   1.083       .  S
C341        C342   1.415       .  A
C342        C343   1.518       .  S
C343        F347   1.383       .  S
C343        F348   1.382       .  S
C343        F349   1.383       .  S
C346        F350   1.383       .  S
C346        F351   1.382       .  S
C346        F352   1.383       .  S
C353        C354   1.403       .  A
C353        C358   1.406       .  A
C353        H360   1.083       .  S
C354        C355   1.418       .  A
C355        C356   1.406       .  A
C355        C362   1.520       .  S
C356        C357   1.403       .  A
C356        H361   1.083       .  S
C357        C358   1.418       .  A
C358        C359   1.520       .  S
C359        F364   1.381       .  S
C359        F365   1.383       .  S
C362        F366   1.383       .  S
C362        F367   1.381       .  S
C362        F368   1.385       .  S
F363        C551   1.385       .  S
C369        C370   1.404       .  A
C369        C374   1.406       .  A
C369        H376   1.084       .  S
C370        C371   1.420       .  A
C371        C372   1.406       .  A
C371        C378   1.522       .  S
C372        C373   1.404       .  A
C372        H377   1.084       .  S
C373        C374   1.420       .  A
C374        C375   1.522       .  S
C375        F379   1.385       .  S
C375        F380   1.383       .  S
C375        F381   1.381       .  S
C378        F382   1.381       .  S
C378        F383   1.383       .  S
C378        F384   1.385       .  S
C385        C386   1.401       .  A
C385        C390   1.404       .  A
C385        C562   1.485       .  S
C386        C387   1.405       .  A
C386        H391   1.081       .  S
C387        C388   1.404       .  A
C387        C406   1.475       .  S
C388        C389   1.403       .  A
C388        H392   1.084       .  S
C389        C390   1.404       .  A
C389        C439   1.476       .  S
C390        H393   1.084       .  S
O394        C404   1.281       .  A
O394       Ni786   1.914       .  S
O395        C405   1.282   1_545  A
O395       Ni402   1.919       .  S
O396        C406   1.280       .  A
O397        C407   1.282   1_545  A
O397       Ni978   1.919       .  S
O398        C407   1.281       .  A
O398       Ni595   1.913   1_456  S
O399        C406   1.282       .  A
O399       Ni403   1.919   1_545  S
O400        C405   1.281       .  A
O401        C404   1.281       .  A
O401       Ni979   1.919   1_445  S
Ni402       O586   1.914   1_556  S
Ni402       O973   1.919       .  S
Ni403       O782   1.913       .  S
Ni403       O977   1.919   1_565  S
C404        C410   1.475       .  S
C405        C419   1.474       .  S
C407        C442   1.475       .  S
C408        C409   1.400       .  A
C408        C413   1.402       .  A
C408        C549   1.481       .  S
C409        C410   1.404       .  A
C409        H414   1.083       .  S
C410        C411   1.405       .  A
C411        C412   1.405       .  A
C411        H415   1.084       .  S
C412        C413   1.404       .  A
C412        C437   1.476       .  S
C413        H416   1.084       .  S
C417        C418   1.399       .  A
C417        C422   1.399       .  A
C417        C530   1.475       .  S
C418        C419   1.404       .  A
C418        H423   1.084       .  S
C419        C420   1.405       .  A
C420        C421   1.405       .  A
C420        H424   1.084   1_565  S
C421        C422   1.404       .  A
C421        C436   1.474       .  S
C422        H425   1.084       .  S
O426        C436   1.282   1_545  A
O426       Ni434   1.919       .  S
O427        C437   1.281       .  A
O427       Ni434   1.915       .  S
O428        C438   1.282   1_545  A
O428       Ni434   1.919       .  S
O429        C439   1.280       .  A
O429       Ni434   1.912       .  S
O430        C439   1.282       .  A
O430       Ni435   1.920   1_545  S
O431        C438   1.281       .  A
O431       Ni435   1.915       .  S
O432        C437   1.281       .  A
O432       Ni435   1.919   1_545  S
O433        C436   1.280       .  A
O433       Ni435   1.911       .  S
Ni434      Ni435   2.389   1_545  S
C438        C444   1.476       .  S
C440        C441   1.399       .  A
C440        C445   1.400       .  A
C440        C514   1.476       .  S
C441        C442   1.404       .  A
C441        H446   1.084       .  S
C442        C443   1.405       .  A
C443        C444   1.405       .  A
C443        H447   1.084   1_565  S
C444        C445   1.405       .  A
C445        H448   1.084       .  S
C449        C450   1.399       .  A
C449        C454   1.399       .  A
C449        C533   1.475       .  S
C450        C451   1.404       .  A
C450        H455   1.084       .  S
C451        C452   1.405       .  A
C451        C486   1.473       .  S
C452        C453   1.405       .  A
C452        H456   1.084       .  S
C453        C454   1.404       .  A
C453        C501   1.474       .  S
C454        H457   1.084       .  S
C458        C459   1.404       .  A
C458        C463   1.401       .  A
C458        C565   1.485       .  S
C459        C460   1.404       .  A
C459        H464   1.084       .  S
C460        C461   1.403       .  A
C460        C489   1.476       .  S
C461        C462   1.404       .  A
C461        H465   1.084       .  S
C462        C463   1.405       .  A
C462        C502   1.475       .  S
C463        H466   1.081       .  S
C467        C468   1.399       .  A
C467        C472   1.400       .  A
C467        C517   1.476       .  S
C468        C469   1.404       .  A
C468        H473   1.084       .  S
C469        C470   1.405       .  A
C469        C503   1.475       .  S
C470        C471   1.405       .  A
C470        H474   1.084       .  S
C471        C472   1.405       .  A
C471        C488   1.476       .  S
C472        H475   1.084       .  S
O476        C486   1.280       .  A
O477        C487   1.281       .  A
O477      Ni1060   1.919   1_455  S
O478        C488   1.281       .  A
O478       Ni676   1.915   1_456  S
O479        C489   1.282       .  A
O479       Ni484   1.920       .  S
O480        C489   1.280       .  A
O481        C488   1.282       .  A
O481      Ni1061   1.919   1_455  S
O482        C487   1.281       .  A
O482       Ni869   1.915   1_455  S
O483        C486   1.282       .  A
O483       Ni485   1.919       .  S
Ni484      O1053   1.919       .  S
Ni484       O862   1.915       .  S
Ni485      O1057   1.919       .  S
Ni485       O674   1.915   1_556  S
C487        C506   1.476       .  S
O490        C500   1.281       .  A
O490       Ni498   1.919       .  S
O491        C501   1.281       .  A
O491       Ni498   1.912       .  S
O492        C502   1.282       .  A
O492       Ni498   1.919       .  S
O493        C503   1.281       .  A
O493       Ni498   1.913       .  S
O494        C503   1.282       .  A
O494       Ni499   1.919       .  S
O495        C502   1.280       .  A
O495       Ni499   1.912       .  S
O496        C501   1.282       .  A
O496       Ni499   1.919       .  S
O497        C500   1.281       .  A
O497       Ni499   1.914       .  S
Ni498      Ni499   2.390       .  S
C500        C508   1.475       .  S
C504        C505   1.402       .  A
C504        C509   1.400       .  A
C504        C546   1.481       .  S
C505        C506   1.404       .  A
C505        H510   1.084       .  S
C506        C507   1.405       .  A
C507        C508   1.405       .  A
C507        H511   1.084       .  S
C508        C509   1.404       .  A
C509        H512   1.083       .  S
C513        C514   1.401       .  A
C513        C518   1.406       .  A
C513        H520   1.083       .  S
C514        C515   1.415       .  A
C515        C516   1.406       .  A
C515        C522   1.517       .  S
C516        C517   1.401       .  A
C516        H521   1.083       .  S
C517        C518   1.415       .  A
C518        C519   1.517       .  S
C519        F523   1.382       .  S
C519        F524   1.383       .  S
C519        F525   1.383       .  S
C522        F526   1.383       .  S
C522        F527   1.383       .  S
C522        F528   1.382       .  S
C529        C530   1.401       .  A
C529        C534   1.406       .  A
C529        H536   1.083       .  S
C530        C531   1.415       .  A
C531        C532   1.406       .  A
C531        C538   1.518       .  S
C532        C533   1.401       .  A
C532        H537   1.083       .  S
C533        C534   1.415       .  A
C534        C535   1.518       .  S
C535        F539   1.383       .  S
C535        F540   1.382       .  S
C535        F541   1.383       .  S
C538        F542   1.383       .  S
C538        F543   1.382       .  S
C538        F544   1.383       .  S
C545        C546   1.403       .  A
C545        C550   1.406       .  A
C545        H552   1.083       .  S
C546        C547   1.418       .  A
C547        C548   1.406       .  A
C547        C554   1.520       .  S
C548        C549   1.403       .  A
C548        H553   1.083       .  S
C549        C550   1.418       .  A
C550        C551   1.520       .  S
C551        F556   1.381       .  S
C551        F557   1.383       .  S
C554        F558   1.383       .  S
C554        F559   1.381       .  S
C554        F560   1.385       .  S
C561        C562   1.404       .  A
C561        C566   1.406       .  A
C561        H568   1.084       .  S
C562        C563   1.420       .  A
C563        C564   1.406       .  A
C563        C570   1.522       .  S
C564        C565   1.404       .  A
C564        H569   1.084       .  S
C565        C566   1.420       .  A
C566        C567   1.522       .  S
C567        F571   1.385       .  S
C567        F572   1.383       .  S
C567        F573   1.381       .  S
C570        F574   1.381       .  S
C570        F575   1.383       .  S
C570        F576   1.385       .  S
C577        C578   1.401       .  A
C577        C582   1.404       .  A
C577        C754   1.485       .  S
C578        C579   1.405       .  A
C578        H583   1.081       .  S
C579        C580   1.404       .  A
C579        C598   1.475       .  S
C580        C581   1.403       .  A
C580        H584   1.084       .  S
C581        C582   1.404       .  A
C581        C631   1.476       .  S
C582        H585   1.084       .  S
O586        C596   1.281       .  A
O587        C597   1.282   1_545  A
O587       Ni594   1.919   1_655  S
O588        C598   1.280       .  A
O588       Ni978   1.912   1_654  S
O589        C599   1.282   1_545  A
O590        C599   1.281       .  A
O591        C598   1.282       .  A
O591       Ni595   1.919   1_545  S
O592        C597   1.281       .  A
O592       Ni787   1.912       .  S
O593        C596   1.281       .  A
Ni594       O780   1.912   1_455  S
Ni594      Ni787   2.390   1_445  S
Ni595       O976   1.912   1_554  S
Ni595      Ni978   2.390   1_664  S
C596        C602   1.475       .  S
C597        C611   1.474       .  S
C599        C634   1.475       .  S
C600        C601   1.400       .  A
C600        C605   1.402       .  A
C600        C741   1.481       .  S
C601        C602   1.404       .  A
C601        H606   1.083       .  S
C602        C603   1.405       .  A
C603        C604   1.405       .  A
C603        H607   1.084       .  S
C604        C605   1.404       .  A
C604        C629   1.476       .  S
C605        H608   1.084       .  S
C609        C610   1.399       .  A
C609        C614   1.399       .  A
C609        C722   1.475       .  S
C610        C611   1.404       .  A
C610        H615   1.084       .  S
C611        C612   1.405       .  A
C612        C613   1.405       .  A
C612        H616   1.084   1_565  S
C613        C614   1.404       .  A
C613        C628   1.474       .  S
C614        H617   1.084       .  S
O618        C628   1.282   1_545  A
O618       Ni626   1.919       .  S
O619        C629   1.281       .  A
O619       Ni626   1.915       .  S
O620        C630   1.282   1_545  A
O620       Ni626   1.919       .  S
O621        C631   1.280       .  A
O621       Ni626   1.912       .  S
O622        C631   1.282       .  A
O622       Ni627   1.920   1_545  S
O623        C630   1.281       .  A
O623       Ni627   1.915       .  S
O624        C629   1.281       .  A
O624       Ni627   1.919   1_545  S
O625        C628   1.280       .  A
O625       Ni627   1.911       .  S
Ni626      Ni627   2.389   1_545  S
C630        C636   1.476       .  S
C632        C633   1.399       .  A
C632        C637   1.400       .  A
C632        C706   1.476       .  S
C633        C634   1.404       .  A
C633        H638   1.084       .  S
C634        C635   1.405       .  A
C635        C636   1.405       .  A
C635        H639   1.084   1_565  S
C636        C637   1.405       .  A
C637        H640   1.084       .  S
C641        C642   1.399       .  A
C641        C646   1.399       .  A
C641        C725   1.475       .  S
C642        C643   1.404       .  A
C642        H647   1.084       .  S
C643        C644   1.405       .  A
C643        C678   1.473       .  S
C644        C645   1.405       .  A
C644        H648   1.084       .  S
C645        C646   1.404       .  A
C645        C693   1.474       .  S
C646        H649   1.084       .  S
C650        C651   1.404       .  A
C650        C655   1.401       .  A
C650        C757   1.485       .  S
C651        C652   1.404       .  A
C651        H656   1.084       .  S
C652        C653   1.403       .  A
C652        C681   1.476       .  S
C653        C654   1.404       .  A
C653        H657   1.084       .  S
C654        C655   1.405       .  A
C654        C694   1.475       .  S
C655        H658   1.081       .  S
C659        C660   1.399       .  A
C659        C664   1.400       .  A
C659        C709   1.476       .  S
C660        C661   1.404       .  A
C660        H665   1.084       .  S
C661        C662   1.405       .  A
C661        C695   1.475       .  S
C662        C663   1.405       .  A
C662        H666   1.084       .  S
C663        C664   1.405       .  A
C663        C680   1.476       .  S
C664        H667   1.084       .  S
O668        C678   1.280       .  A
O668       Ni868   1.911       .  S
O669        C679   1.281       .  A
O670        C680   1.281       .  A
O671        C681   1.282       .  A
O671       Ni676   1.920       .  S
O672        C681   1.280       .  A
O672      Ni1061   1.912   1_554  S
O673        C680   1.282       .  A
O674        C679   1.281       .  A
O675        C678   1.282       .  A
O675       Ni677   1.919       .  S
Ni676      O1052   1.911   1_554  S
Ni676     Ni1061   2.389   1_554  S
Ni677       O864   1.912       .  S
Ni677      Ni868   2.389       .  S
C679        C698   1.476       .  S
O682        C692   1.281       .  A
O682       Ni690   1.919       .  S
O683        C693   1.281       .  A
O683       Ni690   1.912       .  S
O684        C694   1.282       .  A
O684       Ni690   1.919       .  S
O685        C695   1.281       .  A
O685       Ni690   1.913       .  S
O686        C695   1.282       .  A
O686       Ni691   1.919       .  S
O687        C694   1.280       .  A
O687       Ni691   1.912       .  S
O688        C693   1.282       .  A
O688       Ni691   1.919       .  S
O689        C692   1.281       .  A
O689       Ni691   1.914       .  S
Ni690      Ni691   2.390       .  S
C692        C700   1.475       .  S
C696        C697   1.402       .  A
C696        C701   1.400       .  A
C696        C738   1.481       .  S
C697        C698   1.404       .  A
C697        H702   1.084       .  S
C698        C699   1.405       .  A
C699        C700   1.405       .  A
C699        H703   1.084       .  S
C700        C701   1.404       .  A
C701        H704   1.083       .  S
C705        C706   1.401       .  A
C705        C710   1.406       .  A
C705        H712   1.083       .  S
C706        C707   1.415       .  A
C707        C708   1.406       .  A
C707        C714   1.517       .  S
C708        C709   1.401       .  A
C708        H713   1.083       .  S
C709        C710   1.415       .  A
C710        C711   1.517       .  S
C711        F715   1.382       .  S
C711        F716   1.383       .  S
C711        F717   1.383       .  S
C714        F718   1.383       .  S
C714        F719   1.383       .  S
C714        F720   1.382       .  S
C721        C722   1.401       .  A
C721        C726   1.406       .  A
C721        H728   1.083       .  S
C722        C723   1.415       .  A
C723        C724   1.406       .  A
C723        C730   1.518       .  S
C724        C725   1.401       .  A
C724        H729   1.083       .  S
C725        C726   1.415       .  A
C726        C727   1.518       .  S
C727        F731   1.383       .  S
C727        F732   1.382       .  S
C727        F733   1.383       .  S
C730        F734   1.383       .  S
C730        F735   1.382       .  S
C730        F736   1.383       .  S
C737        C738   1.403       .  A
C737        C742   1.406       .  A
C737        H744   1.083       .  S
C738        C739   1.418       .  A
C739        C740   1.406       .  A
C739        C746   1.520       .  S
C740        C741   1.403       .  A
C740        H745   1.083       .  S
C741        C742   1.418       .  A
C742        C743   1.520       .  S
C743       F1131   1.385   1_554  S
C743        F748   1.381   1_554  S
C743        F749   1.383       .  S
C746        F750   1.383       .  S
C746        F751   1.381       .  S
C746        F752   1.385       .  S
F747        C935   1.385       .  S
C753        C754   1.404       .  A
C753        C758   1.406       .  A
C753        H760   1.084       .  S
C754        C755   1.420       .  A
C755        C756   1.406       .  A
C755        C762   1.522       .  S
C756        C757   1.404       .  A
C756        H761   1.084       .  S
C757        C758   1.420       .  A
C758        C759   1.522       .  S
C759        F763   1.385       .  S
C759        F764   1.383       .  S
C759        F765   1.381       .  S
C762        F766   1.381       .  S
C762        F767   1.383       .  S
C762        F768   1.385       .  S
C769        C770   1.401       .  A
C769        C774   1.404       .  A
C769        C946   1.485       .  S
C770        C771   1.405       .  A
C770        H775   1.081       .  S
C771        C772   1.404       .  A
C771        C790   1.475       .  S
C772        C773   1.403       .  A
C772        H776   1.084       .  S
C773        C774   1.404       .  A
C773        C823   1.476       .  S
C774        H777   1.084       .  S
O778        C788   1.281       .  A
O779        C789   1.282   1_545  A
O779       Ni786   1.919   1_655  S
O780        C790   1.280       .  A
O781        C791   1.282   1_545  A
O782        C791   1.281       .  A
O783        C790   1.282       .  A
O783       Ni787   1.919   1_545  S
O784        C789   1.281       .  A
O784       Ni979   1.912       .  S
O785        C788   1.281       .  A
Ni786       O972   1.912   1_455  S
Ni786      Ni979   2.390   1_445  S
C788        C794   1.475       .  S
C789        C803   1.474       .  S
C791        C826   1.475       .  S
C792        C793   1.400       .  A
C792        C797   1.402       .  A
C792        C933   1.481       .  S
C793        C794   1.404       .  A
C793        H798   1.083       .  S
C794        C795   1.405       .  A
C795        C796   1.405       .  A
C795        H799   1.084       .  S
C796        C797   1.404       .  A
C796        C821   1.476       .  S
C797        H800   1.084       .  S
C801        C802   1.399       .  A
C801        C806   1.399       .  A
C801        C914   1.475       .  S
C802        C803   1.404       .  A
C802        H807   1.084       .  S
C803        C804   1.405       .  A
C804        C805   1.405       .  A
C804        H808   1.084   1_565  S
C805        C806   1.404       .  A
C805        C820   1.474       .  S
C806        H809   1.084       .  S
O810        C820   1.282   1_545  A
O810       Ni818   1.919       .  S
O811        C821   1.281       .  A
O811       Ni818   1.915       .  S
O812        C822   1.282   1_545  A
O812       Ni818   1.919       .  S
O813        C823   1.280       .  A
O813       Ni818   1.912       .  S
O814        C823   1.282       .  A
O814       Ni819   1.920   1_545  S
O815        C822   1.281       .  A
O815       Ni819   1.915       .  S
O816        C821   1.281       .  A
O816       Ni819   1.919   1_545  S
O817        C820   1.280       .  A
O817       Ni819   1.911       .  S
Ni818      Ni819   2.389   1_545  S
C822        C828   1.476       .  S
C824        C825   1.399       .  A
C824        C829   1.400       .  A
C824        C898   1.476       .  S
C825        C826   1.404       .  A
C825        H830   1.084       .  S
C826        C827   1.405       .  A
C827        C828   1.405       .  A
C827        H831   1.084   1_565  S
C828        C829   1.405       .  A
C829        H832   1.084       .  S
C833        C834   1.399       .  A
C833        C838   1.399       .  A
C833        C917   1.475       .  S
C834        C835   1.404       .  A
C834        H839   1.084       .  S
C835        C836   1.405       .  A
C835        C870   1.473       .  S
C836        C837   1.405       .  A
C836        H840   1.084       .  S
C837        C838   1.404       .  A
C837        C885   1.474       .  S
C838        H841   1.084       .  S
C842        C843   1.404       .  A
C842        C847   1.401       .  A
C842        C949   1.485       .  S
C843        C844   1.404       .  A
C843        H848   1.084       .  S
C844        C845   1.403       .  A
C844        C873   1.476       .  S
C845        C846   1.404       .  A
C845        H849   1.084       .  S
C846        C847   1.405       .  A
C846        C886   1.475       .  S
C847        H850   1.081       .  S
C851        C852   1.399       .  A
C851        C856   1.400       .  A
C851        C901   1.476       .  S
C852        C853   1.404       .  A
C852        H857   1.084       .  S
C853        C854   1.405       .  A
C853        C887   1.475       .  S
C854        C855   1.405       .  A
C854        H858   1.084       .  S
C855        C856   1.405       .  A
C855        C872   1.476       .  S
C856        H859   1.084       .  S
O860        C870   1.280       .  A
O860      Ni1060   1.911       .  S
O861        C871   1.281       .  A
O862        C872   1.281       .  A
O863        C873   1.282       .  A
O863       Ni868   1.920       .  S
O864        C873   1.280       .  A
O865        C872   1.282       .  A
O866        C871   1.281       .  A
O867        C870   1.282       .  A
O867       Ni869   1.919       .  S
Ni869      O1056   1.912       .  S
Ni869     Ni1060   2.389       .  S
C871        C890   1.476       .  S
O874        C884   1.281       .  A
O874       Ni882   1.919       .  S
O875        C885   1.281       .  A
O875       Ni882   1.912       .  S
O876        C886   1.282       .  A
O876       Ni882   1.919       .  S
O877        C887   1.281       .  A
O877       Ni882   1.913       .  S
O878        C887   1.282       .  A
O878       Ni883   1.919       .  S
O879        C886   1.280       .  A
O879       Ni883   1.912       .  S
O880        C885   1.282       .  A
O880       Ni883   1.919       .  S
O881        C884   1.281       .  A
O881       Ni883   1.914       .  S
Ni882      Ni883   2.390       .  S
C884        C892   1.475       .  S
C888        C889   1.402       .  A
C888        C893   1.400       .  A
C888        C930   1.481       .  S
C889        C890   1.404       .  A
C889        H894   1.084       .  S
C890        C891   1.405       .  A
C891        C892   1.405       .  A
C891        H895   1.084       .  S
C892        C893   1.404       .  A
C893        H896   1.083       .  S
C897        C898   1.401       .  A
C897        C902   1.406       .  A
C897        H904   1.083       .  S
C898        C899   1.415       .  A
C899        C900   1.406       .  A
C899        C906   1.517       .  S
C900        C901   1.401       .  A
C900        H905   1.083       .  S
C901        C902   1.415       .  A
C902        C903   1.517       .  S
C903        F907   1.382       .  S
C903        F908   1.383       .  S
C903        F909   1.383       .  S
C906        F910   1.383       .  S
C906        F911   1.383       .  S
C906        F912   1.382       .  S
C913        C914   1.401       .  A
C913        C918   1.406       .  A
C913        H920   1.083       .  S
C914        C915   1.415       .  A
C915        C916   1.406       .  A
C915        C922   1.518       .  S
C916        C917   1.401       .  A
C916        H921   1.083       .  S
C917        C918   1.415       .  A
C918        C919   1.518       .  S
C919        F923   1.383       .  S
C919        F924   1.382       .  S
C919        F925   1.383       .  S
C922        F926   1.383       .  S
C922        F927   1.382       .  S
C922        F928   1.383       .  S
C929        C930   1.403       .  A
C929        C934   1.406       .  A
C929        H936   1.083       .  S
C930        C931   1.418       .  A
C931        C932   1.406       .  A
C931        C938   1.520       .  S
C932        C933   1.403       .  A
C932        H937   1.083       .  S
C933        C934   1.418       .  A
C934        C935   1.520       .  S
C935        F940   1.381       .  S
C935        F941   1.383       .  S
C938        F942   1.383       .  S
C938        F943   1.381       .  S
C938        F944   1.385       .  S
F939       C1127   1.385       .  S
C945        C946   1.404       .  A
C945        C950   1.406       .  A
C945        H952   1.084       .  S
C946        C947   1.420       .  A
C947        C948   1.406       .  A
C947        C954   1.522       .  S
C948        C949   1.404       .  A
C948        H953   1.084       .  S
C949        C950   1.420       .  A
C950        C951   1.522       .  S
C951        F955   1.385       .  S
C951        F956   1.383       .  S
C951        F957   1.381       .  S
C954        F958   1.381       .  S
C954        F959   1.383       .  S
C954        F960   1.385       .  S
C961        C962   1.401       .  A
C961        C966   1.404       .  A
C961       C1138   1.485       .  S
C962        C963   1.405       .  A
C962        H967   1.081       .  S
C963        C964   1.404       .  A
C963        C982   1.475       .  S
C964        C965   1.403       .  A
C964        H968   1.084       .  S
C965        C966   1.404       .  A
C965       C1015   1.476       .  S
C966        H969   1.084       .  S
O970        C980   1.281       .  A
O971        C981   1.282   1_545  A
O971       Ni978   1.919   1_655  S
O972        C982   1.280       .  A
O973        C983   1.282   1_545  A
O974        C983   1.281       .  A
O975        C982   1.282       .  A
O975       Ni979   1.919   1_545  S
O976        C981   1.281       .  A
O977        C980   1.281       .  A
C980        C986   1.475       .  S
C981        C995   1.474       .  S
C983       C1018   1.475       .  S
C984        C985   1.400       .  A
C984        C989   1.402       .  A
C984       C1125   1.481       .  S
C985        C986   1.404       .  A
C985        H990   1.083       .  S
C986        C987   1.405       .  A
C987        C988   1.405       .  A
C987        H991   1.084       .  S
C988        C989   1.404       .  A
C988       C1013   1.476       .  S
C989        H992   1.084       .  S
C993        C994   1.399       .  A
C993        C998   1.399       .  A
C993       C1106   1.475       .  S
C994        C995   1.404       .  A
C994        H999   1.084       .  S
C995        C996   1.405       .  A
C996        C997   1.405       .  A
C996       H1000   1.084   1_565  S
C997        C998   1.404       .  A
C997       C1012   1.474       .  S
C998       H1001   1.084       .  S
O1002      C1012   1.282   1_545  A
O1002     Ni1010   1.919       .  S
O1003      C1013   1.281       .  A
O1003     Ni1010   1.915       .  S
O1004      C1014   1.282   1_545  A
O1004     Ni1010   1.919       .  S
O1005      C1015   1.280       .  A
O1005     Ni1010   1.912       .  S
O1006      C1015   1.282       .  A
O1006     Ni1011   1.920   1_545  S
O1007      C1014   1.281       .  A
O1007     Ni1011   1.915       .  S
O1008      C1013   1.281       .  A
O1008     Ni1011   1.919   1_545  S
O1009      C1012   1.280       .  A
O1009     Ni1011   1.911       .  S
Ni1010    Ni1011   2.389   1_545  S
C1014      C1020   1.476       .  S
C1016      C1017   1.399       .  A
C1016      C1021   1.400       .  A
C1016      C1090   1.476       .  S
C1017      C1018   1.404       .  A
C1017      H1022   1.084       .  S
C1018      C1019   1.405       .  A
C1019      C1020   1.405       .  A
C1019      H1023   1.084   1_565  S
C1020      C1021   1.405       .  A
C1021      H1024   1.084       .  S
C1025      C1026   1.399       .  A
C1025      C1030   1.399       .  A
C1025      C1109   1.475       .  S
C1026      C1027   1.404       .  A
C1026      H1031   1.084       .  S
C1027      C1028   1.405       .  A
C1027      C1062   1.473       .  S
C1028      C1029   1.405       .  A
C1028      H1032   1.084       .  S
C1029      C1030   1.404       .  A
C1029      C1077   1.474       .  S
C1030      H1033   1.084       .  S
C1034      C1035   1.404       .  A
C1034      C1039   1.401       .  A
C1034      C1141   1.485       .  S
C1035      C1036   1.404       .  A
C1035      H1040   1.084       .  S
C1036      C1037   1.403       .  A
C1036      C1065   1.476       .  S
C1037      C1038   1.404       .  A
C1037      H1041   1.084       .  S
C1038      C1039   1.405       .  A
C1038      C1078   1.475       .  S
C1039      H1042   1.081       .  S
C1043      C1044   1.399       .  A
C1043      C1048   1.400       .  A
C1043      C1093   1.476       .  S
C1044      C1045   1.404       .  A
C1044      H1049   1.084       .  S
C1045      C1046   1.405       .  A
C1045      C1079   1.475       .  S
C1046      C1047   1.405       .  A
C1046      H1050   1.084       .  S
C1047      C1048   1.405       .  A
C1047      C1064   1.476       .  S
C1048      H1051   1.084       .  S
O1052      C1062   1.280       .  A
O1053      C1063   1.281       .  A
O1054      C1064   1.281       .  A
O1055      C1065   1.282       .  A
O1055     Ni1060   1.920       .  S
O1056      C1065   1.280       .  A
O1057      C1064   1.282       .  A
O1058      C1063   1.281       .  A
O1059      C1062   1.282       .  A
O1059     Ni1061   1.919       .  S
C1063      C1082   1.476       .  S
O1066      C1076   1.281       .  A
O1066     Ni1074   1.919       .  S
O1067      C1077   1.281       .  A
O1067     Ni1074   1.912       .  S
O1068      C1078   1.282       .  A
O1068     Ni1074   1.919       .  S
O1069      C1079   1.281       .  A
O1069     Ni1074   1.913       .  S
O1070      C1079   1.282       .  A
O1070     Ni1075   1.919       .  S
O1071      C1078   1.280       .  A
O1071     Ni1075   1.912       .  S
O1072      C1077   1.282       .  A
O1072     Ni1075   1.919       .  S
O1073      C1076   1.281       .  A
O1073     Ni1075   1.914       .  S
Ni1074    Ni1075   2.390       .  S
C1076      C1084   1.475       .  S
C1080      C1081   1.402       .  A
C1080      C1085   1.400       .  A
C1080      C1122   1.481       .  S
C1081      C1082   1.404       .  A
C1081      H1086   1.084       .  S
C1082      C1083   1.405       .  A
C1083      C1084   1.405       .  A
C1083      H1087   1.084       .  S
C1084      C1085   1.404       .  A
C1085      H1088   1.083       .  S
C1089      C1090   1.401       .  A
C1089      C1094   1.406       .  A
C1089      H1096   1.083       .  S
C1090      C1091   1.415       .  A
C1091      C1092   1.406       .  A
C1091      C1098   1.517       .  S
C1092      C1093   1.401       .  A
C1092      H1097   1.083       .  S
C1093      C1094   1.415       .  A
C1094      C1095   1.517       .  S
C1095      F1099   1.382       .  S
C1095      F1100   1.383       .  S
C1095      F1101   1.383       .  S
C1098      F1102   1.383       .  S
C1098      F1103   1.383       .  S
C1098      F1104   1.382       .  S
C1105      C1106   1.401       .  A
C1105      C1110   1.406       .  A
C1105      H1112   1.083       .  S
C1106      C1107   1.415       .  A
C1107      C1108   1.406       .  A
C1107      C1114   1.518       .  S
C1108      C1109   1.401       .  A
C1108      H1113   1.083       .  S
C1109      C1110   1.415       .  A
C1110      C1111   1.518       .  S
C1111      F1115   1.383       .  S
C1111      F1116   1.382       .  S
C1111      F1117   1.383       .  S
C1114      F1118   1.383       .  S
C1114      F1119   1.382       .  S
C1114      F1120   1.383       .  S
C1121      C1122   1.403       .  A
C1121      C1126   1.406       .  A
C1121      H1128   1.083       .  S
C1122      C1123   1.418       .  A
C1123      C1124   1.406       .  A
C1123      C1130   1.520       .  S
C1124      C1125   1.403       .  A
C1124      H1129   1.083       .  S
C1125      C1126   1.418       .  A
C1126      C1127   1.520       .  S
C1127      F1132   1.381       .  S
C1127      F1133   1.383       .  S
C1130      F1134   1.383       .  S
C1130      F1135   1.381       .  S
C1130      F1136   1.385       .  S
C1137      C1138   1.404       .  A
C1137      C1142   1.406       .  A
C1137      H1144   1.084       .  S
C1138      C1139   1.420       .  A
C1139      C1140   1.406       .  A
C1139      C1146   1.522       .  S
C1140      C1141   1.404       .  A
C1140      H1145   1.084       .  S
C1141      C1142   1.420       .  A
C1142      C1143   1.522       .  S
C1143      F1147   1.385       .  S
C1143      F1148   1.383       .  S
C1143      F1149   1.381       .  S
C1146      F1150   1.381       .  S
C1146      F1151   1.383       .  S
C1146      F1152   1.385       .  S
