geometry optimzed in LAMMPS
_audit_creation_date              2020-11-30 
_audit_creation_method            'lammps2cif' 
_symmetry_space_group_name_H-M    'P1' 
_symmetry_Int_Tables_number       1 
_symmetry_cell_setting            triclinic 
loop_ 
_symmetry_equiv_pos_as_xyz 
  x,y,z 
_cell_length_a                    51.69748835 
_cell_length_b                    51.54401817777714 
_cell_length_c                    51.650239168658004 
_cell_angle_alpha                 90.00291480371297 
_cell_angle_beta                  90.01246229026334 
_cell_angle_gamma                 90.00418925774581 
loop_ 
_atom_site_label 
_atom_site_type_symbol 
_atom_site_fract_x 
_atom_site_fract_y 
_atom_site_fract_z 
_atom_site_charge 
O1          O  0.24090108  0.58742991  0.47571398    -0.57500
C2          C  0.27254514  0.59848640  0.54854727     0.75100
O3          O  0.27937417  0.66350949  0.49710370    -0.58700
C4          C  0.23006183  0.60080830  0.45821707     0.75100
C5          C  0.20735615  0.65002057  0.52500264     0.77500
Cd6        Cd  0.25200203  0.62485676  0.50368758     1.37500
O7          O  0.26473415  0.58599569  0.52892579    -0.57500
O8          O  0.20983762  0.62559286  0.52495638    -0.56300
C9          C  0.29718413  0.65154574  0.48526568     0.77400
O10         O  0.22543264  0.66281809  0.51451755    -0.58700
O11         O  0.27065068  0.62289860  0.54732659    -0.57200
O12         O  0.23004095  0.62511190  0.46157036    -0.57200
O13         O  0.29341007  0.62765605  0.48128388    -0.56300
O14         O  0.76560080  0.91673452  0.47239372    -0.57500
C15         C  0.73038068  0.90009522  0.54168887     0.75100
O16         O  0.70527463  0.87354642  0.47819044    -0.58700
C17         C  0.76771514  0.90633084  0.45029801     0.75100
C18         C  0.79719241  0.85135906  0.50919518     0.77500
Cd19       Cd  0.74978512  0.87703251  0.49453077     1.37500
O20         O  0.73386477  0.91345983  0.52144280    -0.57500
O21         O  0.79507130  0.87576182  0.50801877    -0.56300
C22         C  0.70503240  0.84907226  0.47622835     0.77400
O23         O  0.77706566  0.83853669  0.50366098    -0.58700
O24         O  0.73638916  0.87637640  0.54009419    -0.57200
O25         O  0.76064721  0.88288728  0.44864170    -0.57200
O26         O  0.72551413  0.83737549  0.48288806    -0.56300
O27         O  0.99045479  0.72864676  0.65946188    -0.57500
C28         C  0.01412805  0.79926257  0.64821407     0.75100
O29         O  0.02745200  0.74268953  0.58183244    -0.58700
C30         C  0.98214277  0.70845033  0.64817132     0.75100
C31         C  0.95638383  0.77103074  0.58761255     0.77500
Cd32       Cd  0.99915850  0.75347441  0.61927140     1.37500
O33         O  0.99481064  0.78569652  0.65466580    -0.57500
O34         O  0.95344470  0.75723797  0.60760539    -0.56300
C35         C  0.04456736  0.73142673  0.59529050     0.77400
O36         O  0.97948937  0.77628714  0.58152732    -0.58700
O37         O  0.02637807  0.79161092  0.62848308    -0.57200
O38         O  0.98135582  0.70942434  0.62368421    -0.57200
O39         O  0.04044414  0.73071701  0.61940652    -0.56300
O40         O  0.52374046  0.74379299  0.90951693    -0.57500
C41         C  0.45219260  0.77372367  0.89744341     0.75100
O42         O  0.50063235  0.77955939  0.83279963    -0.58700
C43         C  0.54255984  0.73433836  0.89692587     0.75100
C44         C  0.47531421  0.70437357  0.84810980     0.77500
Cd45       Cd  0.49603871  0.75102705  0.87124906     1.37500
O46         O  0.46888257  0.76045065  0.90953057    -0.57500
O47         O  0.47464893  0.70850625  0.87220451    -0.56300
C48         C  0.51684488  0.79460514  0.84345997     0.77400
O49         O  0.48623426  0.72164630  0.83451729    -0.58700
O50         O  0.45626682  0.77706503  0.87354184    -0.57200
O51         O  0.53931348  0.73166583  0.87278604    -0.57200
O52         O  0.52323392  0.78930227  0.86648002    -0.56300
O53         O  0.66347692  0.99031206  0.71921163    -0.57500
C54         C  0.64811120  0.02374470  0.78960937     0.75100
O55         O  0.58680478  0.02650912  0.73879936    -0.58700
C56         C  0.65318128  0.97280528  0.70536077     0.75100
C57         C  0.59863150  0.95405920  0.76742829     0.77500
Cd58       Cd  0.62448146  0.99812581  0.74581712     1.37500
O59         O  0.66174072  0.01216099  0.77277771    -0.57500
O60         O  0.62055774  0.96130771  0.77557027    -0.56300
C61         C  0.59693291  0.03948482  0.72065978     0.77400
O62         O  0.58847155  0.96737202  0.74952070    -0.58700
O63         O  0.62393934  0.02318329  0.78605609    -0.57200
O64         O  0.62996102  0.96715614  0.71049385    -0.57200
O65         O  0.61953056  0.03307940  0.71390613    -0.56300
O66         O  0.77421739  0.67619302  0.01502263    -0.57500
C67         C  0.70375936  0.66281245  0.98101398     0.75100
O68         O  0.75563193  0.59811123  0.97394469    -0.58700
C69         C  0.79496462  0.66409941  0.01995434     0.75100
C70         C  0.73299300  0.61072800  0.04858183     0.77500
Cd71       Cd  0.74921749  0.63700815  0.00168241     1.37500
O72         O  0.72378471  0.67532138  0.98760817    -0.57500
O73         O  0.72602517  0.63369607  0.04348912    -0.56300
C74         C  0.76633496  0.61022171  0.95548167     0.77400
O75         O  0.74701998  0.59966099  0.03182750    -0.58700
O76         O  0.70484860  0.63848522  0.98426695    -0.57200
O77         O  0.79427055  0.63982941  0.01652216    -0.57200
O78         O  0.76894327  0.63438769  0.95862262    -0.56300
O79         O  0.91644061  0.47935563  0.76608740    -0.57500
C80         C  0.90522930  0.55296189  0.73880111     0.75100
O81         O  0.84009277  0.49538360  0.72989025    -0.58700
C82         C  0.90350332  0.45984119  0.77339691     0.75100
C83         C  0.85269433  0.52487187  0.80237469     0.77500
Cd84       Cd  0.87853647  0.50673534  0.75613430     1.37500
O85         O  0.91734239  0.53231303  0.74416154    -0.57500
O86         O  0.87705198  0.52333807  0.80076400    -0.56300
C87         C  0.85262334  0.48836632  0.71004072     0.77400
O88         O  0.84022577  0.51797899  0.78240108    -0.58700
O89         O  0.88092271  0.55198852  0.74156991    -0.57200
O90         O  0.87917550  0.46236084  0.77329691    -0.57200
O91         O  0.87693236  0.49069617  0.71129336    -0.56300
O92         O  0.59393396  0.53522485  0.25651620    -0.57500
C93         C  0.60301571  0.46335824  0.23306572     0.75100
O94         O  0.66935010  0.50720413  0.22165150    -0.58700
C95         C  0.60291333  0.54876171  0.27492596     0.75100
C96         C  0.65815408  0.48621129  0.29838518     0.77500
Cd97       Cd  0.63239805  0.50661426  0.25297333     1.37500
O98         O  0.59193594  0.48255675  0.24357559    -0.57500
O99         O  0.63728227  0.47679952  0.28977980    -0.56300
C100        C  0.66211357  0.52752391  0.21000371     0.77400
O101        O  0.66753356  0.50513817  0.28588281    -0.58700
O102        O  0.62736551  0.46475528  0.23110327    -0.57200
O103        O  0.62531992  0.54283024  0.28276484    -0.57200
O104        O  0.64145780  0.53779791  0.21804935    -0.56300
O105        O  0.49548210  0.23198318  0.16694065    -0.57500
C106        C  0.51782366  0.30658108  0.15428486     0.75100
O107        O  0.52825688  0.25102658  0.08910242    -0.58700
C108        C  0.48613774  0.21297561  0.15451901     0.75100
C109        C  0.45494927  0.27380102  0.10171257     0.77500
Cd110      Cd  0.50195405  0.25957562  0.12819252     1.37500
O111        O  0.51005773  0.28698448  0.16681804    -0.57500
O112        O  0.45563470  0.27036013  0.12595028    -0.56300
C113        C  0.54683206  0.24033764  0.10091042     0.77400
O114        O  0.47614872  0.27117864  0.08976108    -0.58700
O115        O  0.51839170  0.30418928  0.12995821    -0.57200
O116        O  0.48412903  0.21580410  0.13026607    -0.57200
O117        O  0.54486546  0.23949217  0.12530603    -0.56300
O118        O  0.42275997  0.03126464  0.23959843    -0.57500
C119        C  0.41007052  0.95763012  0.26473825     0.75100
O120        O  0.34415739  0.01753565  0.27061458    -0.58700
C121        C  0.41007290  0.05127580  0.23318057     0.75100
C122        C  0.36016652  0.98536174  0.20010546     0.77500
Cd123      Cd  0.38397340  0.00372156  0.24731687     1.37500
O124        O  0.42206210  0.97888384  0.26199930    -0.57500
O125        O  0.38419686  0.98986191  0.20136728    -0.56300
C126        C  0.35472981  0.01955260  0.29264106     0.77400
O127        O  0.34732278  0.98983018  0.22049173    -0.58700
O128        O  0.38624475  0.95783177  0.25923386    -0.57200
O129        O  0.38576052  0.04883417  0.23291842    -0.57200
O130        O  0.37844963  0.01379316  0.29344720    -0.56300
O131        O  0.51446533  0.72804773  0.34001721    -0.57500
C132        C  0.48379913  0.79898769  0.35084970     0.75100
O133        O  0.47245519  0.74145659  0.41574311    -0.58700
C134        C  0.51776913  0.70681713  0.35188407     0.75100
C135        C  0.54459366  0.76644637  0.40635608     0.77500
Cd136      Cd  0.49881807  0.75237273  0.37786540     1.37500
O137        O  0.48758769  0.77788260  0.33895103    -0.57500
O138        O  0.54509352  0.76053390  0.38263060    -0.56300
C139        C  0.45223314  0.73546104  0.40329515     0.77400
O140        O  0.52257648  0.76634267  0.41706834    -0.58700
O141        O  0.48702590  0.79842883  0.37510034    -0.57200
O142        O  0.51104441  0.70637627  0.37544419    -0.57200
O143        O  0.45373532  0.73714531  0.37892059    -0.56300
O144        O  0.76064011  0.08913531  0.01890587    -0.57500
C145        C  0.72261111  0.10413206  0.95158516     0.75100
O146        O  0.71798200  0.16743017  0.00270207    -0.58700
C147        C  0.76634111  0.10067062  0.03981321     0.75100
C148        C  0.79125632  0.15694625  0.97719133     0.77500
Cd149      Cd  0.74609293  0.12924474  0.99590627     1.37500
O150        O  0.73072671  0.09120062  0.97078085    -0.57500
O151        O  0.78611039  0.13403892  0.97007133    -0.56300
C152        C  0.70216809  0.15615378  0.01762113     0.77400
O153        O  0.77547812  0.16723469  0.99283016    -0.58700
O154        O  0.72538091  0.12847407  0.95303915    -0.57200
O155        O  0.76359009  0.12502463  0.03974898    -0.57200
O156        O  0.70633184  0.13233687  0.02174392    -0.56300
O157        O  0.00915182  0.22700665  0.84026201    -0.57500
C158        C  0.98155065  0.29926954  0.85194354     0.75100
O159        O  0.96875342  0.25196135  0.91501793    -0.58700
C160        C  0.02237202  0.21005771  0.85219096     0.75100
C161        C  0.04668385  0.27359073  0.90370753     0.77500
Cd162      Cd  0.00056969  0.25400380  0.87887218     1.37500
O163        O  0.99154746  0.28052104  0.83964935    -0.57500
O164        O  0.04232346  0.27614087  0.87978043    -0.56300
C165        C  0.95577403  0.23336738  0.90566574     0.77400
O166        O  0.02931272  0.26209944  0.91666154    -0.58700
O167        O  0.97920748  0.29618578  0.87607857    -0.57200
O168        O  0.02468738  0.21320484  0.87639005    -0.57200
O169        O  0.96356242  0.22432169  0.88429517    -0.56300
O170        O  0.27661132  0.84631662  0.98583654    -0.57500
C171        C  0.20668729  0.86002682  0.01900662     0.75100
O172        O  0.26203167  0.92402423  0.02453338    -0.58700
C173        C  0.29669690  0.85853294  0.97891951     0.75100
C174        C  0.23245755  0.90994032  0.95127574     0.77500
Cd175      Cd  0.25165718  0.88537744  0.99791605     1.37500
O176        O  0.22614008  0.84719138  0.01139648    -0.57500
O177        O  0.23039745  0.88586216  0.95542203    -0.56300
C178        C  0.27106075  0.91125387  0.04345114     0.77400
O179        O  0.24296862  0.92309871  0.96913131    -0.58700
O180        O  0.20834072  0.88444119  0.01714843    -0.57200
O181        O  0.29567625  0.88299528  0.98038510    -0.57200
O182        O  0.27127597  0.88686295  0.04100159    -0.56300
O183        O  0.08144258  0.03015206  0.76120712    -0.57500
C184        C  0.08785446  0.95850437  0.73167302     0.75100
O185        O  0.15325095  0.00099641  0.71397849    -0.58700
C186        C  0.09521886  0.04911640  0.76857424     0.75100
C187        C  0.14518102  0.98568784  0.79359575     0.77500
Cd188      Cd  0.11835617  0.00281535  0.74739409     1.37500
O189        O  0.07733055  0.98033318  0.73571061    -0.57500
O190        O  0.12122524  0.98232897  0.79020588    -0.56300
C191        C  0.14440427  0.01934987  0.70032405     0.77400
O192        O  0.15710073  0.99673861  0.77521067    -0.58700
O193        O  0.11215874  0.95764681  0.73413372    -0.57200
O194        O  0.11940575  0.04678105  0.76565634    -0.57200
O195        O  0.12338461  0.02929094  0.70791624    -0.56300
O196        O  0.83568472  0.01358120  0.21747689    -0.57500
C197        C  0.84803707  0.98466816  0.29094837     0.75100
O198        O  0.91262872  0.98085620  0.23545701    -0.58700
C199        C  0.84850222  0.02303221  0.19883142     0.75100
C200        C  0.89908379  0.05152901  0.26663305     0.77500
Cd201      Cd  0.87361369  0.00616979  0.24601301     1.37500
O202        O  0.83582366  0.99770037  0.27413250    -0.57500
O203        O  0.87471323  0.04976327  0.26507251    -0.56300
C204        C  0.90032857  0.96203619  0.22558382     0.77400
O205        O  0.91174400  0.03236567  0.25807110    -0.58700
O206        O  0.87204596  0.98194838  0.28718531    -0.57200
O207        O  0.87257783  0.02541841  0.20248664    -0.57200
O208        O  0.87593667  0.96366871  0.22576893    -0.56300
O209        O  0.97743042  0.74515577  0.08647203    -0.57500
C210        C  0.04917614  0.77779950  0.09971879     0.75100
O211        O  0.98458926  0.78070678  0.16275428    -0.58700
C212        C  0.95634043  0.74208570  0.09860320     0.75100
C213        C  0.02420927  0.71281874  0.15010860     0.77500
Cd214      Cd  0.00328032  0.75818050  0.12495188     1.37500
O215        O  0.02942084  0.77123934  0.08671355    -0.57500
O216        O  0.01793014  0.71293796  0.12646992    -0.56300
C217        C  0.98509123  0.80301211  0.15246699     0.77400
O218        O  0.01990185  0.73357939  0.16246588    -0.58700
O219        O  0.04739694  0.77552441  0.12402959    -0.57200
O220        O  0.95710659  0.74629239  0.12269533    -0.57200
O221        O  0.99398985  0.80433260  0.12970320    -0.56300
O222        O  0.15649286  0.48712299  0.22977741    -0.57500
C223        C  0.14756691  0.52668310  0.29796216     0.75100
O224        O  0.08277459  0.53293054  0.24108384    -0.58700
C225        C  0.14404280  0.48356444  0.20897043     0.75100
C226        C  0.09248975  0.46348838  0.27972469     0.77500
Cd227      Cd  0.11974001  0.50560170  0.25456734     1.37500
O228        O  0.15931429  0.51909662  0.27781520    -0.57500
O229        O  0.11687523  0.46480872  0.27873937    -0.56300
C230        C  0.09637055  0.55265225  0.23563443     0.77400
O231        O  0.08026986  0.48128641  0.26802984    -0.58700
O232        O  0.12317367  0.52470052  0.29770598    -0.57200
O233        O  0.12030042  0.48939159  0.20962171    -0.57200
O234        O  0.12051759  0.55031757  0.23868890    -0.56300
O235        O  0.33869195  0.50488462  0.72504908    -0.57500
C236        C  0.35326108  0.47305509  0.79610739     0.75100
O237        O  0.41726126  0.46696488  0.74364698    -0.58700
C238        C  0.35085683  0.51658159  0.70722653     0.75100
C239        C  0.40130876  0.54099529  0.76984852     0.77500
Cd240      Cd  0.37803274  0.49393135  0.75039935     1.37500
O241        O  0.34015782  0.47904202  0.77627433    -0.57500
O242        O  0.37731957  0.53652215  0.77111128    -0.56300
C243        C  0.40634388  0.45034673  0.72929814     0.77400
O244        O  0.41505184  0.52332683  0.75975625    -0.58700
O245        O  0.37744579  0.47616966  0.79430503    -0.57200
O246        O  0.37526298  0.51662856  0.70898002    -0.57200
O247        O  0.38264452  0.45408959  0.72448994    -0.56300
O248        O  0.23965643  0.41760603  0.03337030    -0.57500
C249        C  0.27564769  0.40588570  0.96225304     0.75100
O250        O  0.27615088  0.34054485  0.01462430    -0.58700
C251        C  0.22805207  0.40457097  0.05061788     0.75100
C252        C  0.20669968  0.35467477  0.98100721     0.77500
Cd253      Cd  0.25032862  0.37993088  0.00518615     1.37500
O254        O  0.26053172  0.41815586  0.97719666    -0.57500
O255        O  0.20962588  0.37902942  0.98050394    -0.56300
C256        C  0.29352415  0.35224969  0.02739915     0.77400
O257        O  0.22397107  0.34188843  0.99278387    -0.58700
O258        O  0.27852713  0.38203838  0.96708261    -0.57200
O259        O  0.22656503  0.38040806  0.04661467    -0.57200
O260        O  0.29073597  0.37652063  0.02979292    -0.56300
O261        O  0.22277938  0.15940243  0.48344216    -0.57500
C262        C  0.29376733  0.14650061  0.51380274     0.75100
O263        O  0.24454906  0.08297895  0.52562933    -0.58700
C264        C  0.20294451  0.14703922  0.47596838     0.75100
C265        C  0.26436460  0.09465242  0.44804458     0.77500
Cd266      Cd  0.24792867  0.12027672  0.49519411     1.37500
O267        O  0.27393297  0.15920715  0.50697475    -0.57500
O268        O  0.26778322  0.11858184  0.45204063    -0.56300
C269        C  0.22838070  0.09377179  0.54055767     0.77400
O270        O  0.25347712  0.08218234  0.46614547    -0.58700
O271        O  0.29176893  0.12208691  0.51292649    -0.57200
O272        O  0.20402913  0.12257257  0.47767718    -0.57200
O273        O  0.22175222  0.11665138  0.53472463    -0.56300
O274        O  0.02392001  0.23968101  0.41759569    -0.57500
C275        C  0.95193451  0.27266918  0.40694737     0.75100
O276        O  0.00677858  0.28422953  0.34453274    -0.58700
C277        C  0.04164499  0.22963135  0.40395957     0.75100
C278        C  0.97613098  0.21054682  0.35164430     0.77500
Cd279      Cd  0.99722838  0.25385177  0.38039215     1.37500
O280        O  0.97176255  0.26542272  0.41941957    -0.57500
O281        O  0.97556844  0.21170623  0.37613063    -0.56300
C282        C  0.01594774  0.30205086  0.35870759     0.77400
O283        O  0.98695035  0.22945192  0.34030749    -0.58700
O284        O  0.95299686  0.27047280  0.38259164    -0.57200
O285        O  0.03903593  0.23137684  0.37967885    -0.57200
O286        O  0.01732403  0.29707937  0.38261714    -0.56300
O287        O  0.72262447  0.34179072  0.51307092    -0.57500
C288        C  0.79256765  0.35356034  0.48461450     0.75100
O289        O  0.74693559  0.41914502  0.47765050    -0.58700
C290        C  0.70471686  0.35277816  0.52570922     0.75100
C291        C  0.76971643  0.40770714  0.55262600     0.77500
Cd292      Cd  0.74940684  0.38121326  0.50727272     1.37500
O293        O  0.77584543  0.34194155  0.49823772    -0.57500
O294        O  0.77328251  0.38373397  0.54878218    -0.56300
C295        C  0.72953410  0.40984294  0.46314487     0.77400
O296        O  0.75658209  0.41940689  0.53558681    -0.58700
O297        O  0.78951113  0.37773021  0.48199755    -0.57200
O298        O  0.70769445  0.37678028  0.52995624    -0.57200
O299        O  0.72089028  0.38778078  0.46943206    -0.56300
O300        O  0.47420289  0.23285050  0.57983194    -0.57500
C301        C  0.54215000  0.26680554  0.58899333     0.75100
O302        O  0.50226994  0.27773018  0.65459013    -0.58700
C303        C  0.45458482  0.22490364  0.59219891     0.75100
C304        C  0.51801869  0.19965668  0.64295300     0.77500
Cd305      Cd  0.49933339  0.24595315  0.61830575     1.37500
O306        O  0.51970564  0.26572447  0.57916574    -0.57500
O307        O  0.52405158  0.20570768  0.62004024    -0.56300
C308        C  0.48251387  0.29052496  0.64784497     0.77400
O309        O  0.50312737  0.21505661  0.65489921    -0.58700
O310        O  0.54447384  0.25819164  0.61178332    -0.57200
O311        O  0.45615711  0.22611618  0.61661679    -0.57200
O312        O  0.47108665  0.28300027  0.62758662    -0.56300
C313        C  0.64196444  0.33412750  0.55986418    -0.11100
C314        C  0.63449971  0.31215940  0.54572373     0.15400
C315        C  0.65058365  0.30315720  0.52555386     0.02300
C316        C  0.67379232  0.31616229  0.52017927    -0.15500
C317        C  0.68120067  0.33844314  0.53410444    -0.10300
C318        C  0.66514740  0.34710571  0.55458496     0.09100
C319        C  0.61056826  0.29850157  0.55377234     0.10100
S320        S  0.64241051  0.27551046  0.50576556    -0.24600
H321        H  0.68575931  0.30923967  0.50440276     0.20300
S322        S  0.67354337  0.37371274  0.57560978    -0.30300
H323        H  0.62990772  0.34080197  0.57569418     0.10700
C324        C  0.61163446  0.27531529  0.56818101     0.03900
C325        C  0.58881003  0.26503888  0.57866835    -0.12600
C326        C  0.56484291  0.27739036  0.57507434    -0.08300
C327        C  0.56372347  0.30015800  0.55983275     0.07300
C328        C  0.58654781  0.31037686  0.54930586    -0.13400
S329        S  0.64221919  0.25961655  0.57459314    -0.30300
H330        H  0.58969226  0.24756488  0.59027536     0.11600
S331        S  0.53427804  0.31815735  0.55472108    -0.27400
H332        H  0.58575161  0.32833367  0.53841689     0.08800
H333        H  0.69972780  0.36654216  0.57774470     0.27200
H334        H  0.63205707  0.23753422  0.58694713     0.22000
H335        H  0.52541403  0.31563127  0.58034774     0.27300
H336        H  0.61544340  0.27834530  0.50777201     0.16200
C337        C  0.84757450  0.33488669  0.43940946    -0.11100
C338        C  0.85884702  0.31421767  0.45293998     0.15400
C339        C  0.84783695  0.30606794  0.47660616     0.02300
C340        C  0.82591388  0.31886707  0.48619809    -0.15500
C341        C  0.81470793  0.33974536  0.47275348    -0.10300
C342        C  0.82558847  0.34750812  0.44883211     0.09100
C343        C  0.88242892  0.30222528  0.44196169     0.10100
S344        S  0.86100920  0.27990961  0.49573124    -0.24600
H345        H  0.81782949  0.31276737  0.50457508     0.20300
S346        S  0.81203599  0.37277194  0.42889414    -0.30300
H347        H  0.85594043  0.34113338  0.42119839     0.10700
C348        C  0.88136709  0.28719532  0.41920396     0.03900
C349        C  0.90435211  0.27769078  0.40838885    -0.12600
C350        C  0.92848331  0.28298589  0.41975159    -0.08300
C351        C  0.92944439  0.29828252  0.44248823     0.07300
C352        C  0.90642414  0.30741113  0.45349861    -0.13400
S353        S  0.85068866  0.27978608  0.40414638    -0.30300
H354        H  0.90352740  0.26594145  0.39102981     0.11600
S355        S  0.95933014  0.30838189  0.45735646    -0.27400
H356        H  0.90725279  0.31943586  0.47069519     0.08800
H357        H  0.78615128  0.36575228  0.43358505     0.27200
H358        H  0.86074701  0.26675397  0.38244006     0.22000
H359        H  0.97198288  0.31355859  0.43379479     0.27300
H360        H  0.87286717  0.26640623  0.47530548     0.16200
C361        C  0.36398309  0.15902668  0.53223623    -0.11100
C362        C  0.36207766  0.18321886  0.54437735     0.15400
C363        C  0.33803451  0.19623547  0.54475509     0.02300
C364        C  0.31618865  0.18409870  0.53416456    -0.15500
C365        C  0.31783933  0.15939415  0.52273369    -0.10300
C366        C  0.34236786  0.14723580  0.52100361     0.09100
C367        C  0.38550423  0.19395320  0.55681353     0.10100
S368        S  0.33367857  0.22789992  0.55906004    -0.24600
H369        H  0.29765941  0.19386032  0.53530553     0.20300
S370        S  0.34776344  0.11722569  0.50391544    -0.30300
H371        H  0.38256099  0.14930650  0.53139078     0.10700
C372        C  0.39027712  0.19049947  0.58340201     0.03900
C373        C  0.41292093  0.20077322  0.59434190    -0.12600
C374        C  0.43097577  0.21460791  0.57925375    -0.08300
C375        C  0.42580431  0.21810520  0.55249987     0.07300
C376        C  0.40346238  0.20735116  0.54158705    -0.13400
S377        S  0.36762221  0.17273019  0.60327795    -0.30300
H378        H  0.41658705  0.19789049  0.61477243     0.11600
S379        S  0.44610511  0.23690249  0.53128144    -0.27400
H380        H  0.39967053  0.21000162  0.52111648     0.08800
H381        H  0.33141353  0.12364506  0.48307913     0.27200
H382        H  0.38196003  0.17390200  0.62639711     0.22000
H383        H  0.44695173  0.25839944  0.54807358     0.27300
H384        H  0.35940818  0.23636393  0.55705745     0.16200
C385        C  0.09858111  0.18442833  0.41552956    -0.11100
C386        C  0.10928088  0.19512643  0.43806270     0.15400
C387        C  0.09716969  0.21664469  0.44982076     0.02300
C388        C  0.07499292  0.22734669  0.43846796    -0.15500
C389        C  0.06435290  0.21680139  0.41575642    -0.10300
C390        C  0.07608268  0.19469468  0.40452889     0.09100
C391        C  0.13307939  0.18328833  0.44868631     0.10100
S392        S  0.10912228  0.23135594  0.47915684    -0.24600
H393        H  0.06610597  0.24419571  0.44732476     0.20300
S394        S  0.06271310  0.17790499  0.37697034    -0.30300
H395        H  0.10763397  0.16764707  0.40669760     0.10700
C396        C  0.13226416  0.15937274  0.46181416     0.03900
C397        C  0.15535871  0.14809426  0.47049688    -0.12600
C398        C  0.17938171  0.16012526  0.46616382    -0.08300
C399        C  0.18007692  0.18403351  0.45268813     0.07300
C400        C  0.15692497  0.19551162  0.44447460    -0.13400
S401        S  0.10171449  0.14347435  0.46790092    -0.30300
H402        H  0.15468313  0.12987672  0.48090880     0.11600
S403        S  0.20979174  0.19998979  0.44382272    -0.27400
H404        H  0.15753380  0.21370089  0.43396392     0.08800
H405        H  0.03676687  0.18106194  0.38459019     0.27200
H406        H  0.11192298  0.12113092  0.47973570     0.22000
H407        H  0.22245908  0.17696618  0.43646753     0.27300
H408        H  0.11943423  0.20855959  0.48994421     0.16200
C409        C  0.45057985  0.39172326  0.72117758    -0.11100
C410        C  0.44476079  0.38430379  0.69567941     0.15400
C411        C  0.42704440  0.39930966  0.68118476     0.02300
C412        C  0.41481481  0.42055638  0.69273818    -0.15500
C413        C  0.42031221  0.42782691  0.71833523    -0.10300
C414        C  0.43859945  0.41326137  0.73263569     0.09100
C415        C  0.45538890  0.35959888  0.68541941     0.10100
S416        S  0.41919870  0.39237021  0.64784329    -0.24600
H417        H  0.40107982  0.43175347  0.68148371     0.20300
S418        S  0.44625183  0.42003723  0.76600402    -0.30300
H419        H  0.46384305  0.38008098  0.73254417     0.10700
C420        C  0.48207525  0.35599086  0.68088404     0.03900
C421        C  0.49070964  0.33270392  0.66961967    -0.12600
C422        C  0.47313669  0.31314875  0.66260649    -0.08300
C423        C  0.44660743  0.31642508  0.66821924     0.07300
C424        C  0.43806339  0.33951919  0.67948214    -0.13400
S425        S  0.50491129  0.38153926  0.68799214    -0.30300
H426        H  0.51103534  0.33012390  0.66526822     0.11600
S427        S  0.42273625  0.29171511  0.66182369    -0.27400
H428        H  0.41762556  0.34199893  0.68346386     0.08800
H429        H  0.42072652  0.42614738  0.77321207     0.27200
H430        H  0.52716601  0.36833994  0.67951345     0.22000
H431        H  0.43922061  0.27063156  0.66702971     0.27300
H432        H  0.44327055  0.38144228  0.64138308     0.16200
C433        C  0.32219818  0.41942113  0.90673693    -0.11100
C434        C  0.30960543  0.43981618  0.89396447     0.15400
C435        C  0.28681218  0.45028444  0.90481100     0.02300
C436        C  0.27647730  0.43933236  0.92741914    -0.15500
C437        C  0.28871131  0.41841746  0.93989994    -0.10300
C438        C  0.31241940  0.40906667  0.92977372     0.09100
C439        C  0.32042306  0.44909932  0.86902652     0.10100
S440        S  0.27003060  0.47747993  0.89066006    -0.24600
H441        H  0.25850476  0.44696181  0.93506912     0.20300
S442        S  0.33171031  0.38465478  0.94565924    -0.30300
H443        H  0.33995921  0.41162052  0.89874438     0.10700
C444        C  0.34445526  0.46191839  0.86792281     0.03900
C445        C  0.35463946  0.46915758  0.84384046    -0.12600
C446        C  0.34138568  0.46390337  0.82063664    -0.08300
C447        C  0.31728933  0.45088542  0.82184963     0.07300
C448        C  0.30700955  0.44389512  0.84598296    -0.13400
S449        S  0.36185896  0.46974443  0.89724992    -0.30300
H450        H  0.37293777  0.47934311  0.84312833     0.11600
S451        S  0.29931117  0.44143715  0.79349305    -0.27400
H452        H  0.28870436  0.43367532  0.84679832     0.08800
H453        H  0.32690160  0.39401464  0.97080375     0.27200
H454        H  0.38299808  0.48211759  0.88535779     0.22000
H455        H  0.32123429  0.43322730  0.77958175     0.27300
H456        H  0.29212308  0.48946651  0.88021905     0.16200
C457        C  0.15873909  0.46543015  0.13880973    -0.11100
C458        C  0.18029950  0.44927059  0.14192456     0.15400
C459        C  0.19039640  0.44514348  0.16699069     0.02300
C460        C  0.17853025  0.45697070  0.18834164    -0.15500
C461        C  0.15658152  0.47281612  0.18539505    -0.10300
C462        C  0.14705521  0.47753163  0.16008644     0.09100
C463        C  0.19231029  0.43778623  0.11853346     0.10100
S464        S  0.21845669  0.42523613  0.17304678    -0.24600
H465        H  0.18625995  0.45332336  0.20750354     0.20300
S466        S  0.12111258  0.49987732  0.15330743    -0.30300
H467        H  0.15131419  0.46910001  0.11952480     0.10700
C468        C  0.18288954  0.41460046  0.10764744     0.03900
C469        C  0.19509192  0.40413650  0.08571155    -0.12600
C470        C  0.21637474  0.41658265  0.07407683    -0.08300
C471        C  0.22561908  0.43999061  0.08512326     0.07300
C472        C  0.21341171  0.45034703  0.10704017    -0.13400
S473        S  0.15545893  0.39826300  0.12191509    -0.30300
H474        H  0.18781557  0.38628666  0.07740671     0.11600
S475        S  0.25349058  0.45707392  0.07300917    -0.27400
H476        H  0.22065752  0.46817974  0.11547364     0.08800
H477        H  0.12993627  0.51887272  0.17078824     0.27200
H478        H  0.15374044  0.37815751  0.10358008     0.22000
H479        H  0.26852235  0.43451298  0.06995816     0.27300
H480        H  0.21489440  0.40811670  0.15219523     0.16200
C481        C  0.07865342  0.40646062  0.32443558    -0.11100
C482        C  0.05488708  0.39773069  0.31477161     0.15400
C483        C  0.04234233  0.41215818  0.29517366     0.02300
C484        C  0.05472523  0.43385454  0.28446632    -0.15500
C485        C  0.07911529  0.44198646  0.29336176    -0.10300
C486        C  0.09059041  0.42863145  0.31441261     0.09100
C487        C  0.04408958  0.37334593  0.32544400     0.10100
S488        S  0.01076556  0.40381332  0.28280472    -0.24600
H489        H  0.04539315  0.44420215  0.26876992     0.20300
S490        S  0.11983928  0.43934304  0.33014532    -0.30300
H491        H  0.08796392  0.39590523  0.34001837     0.10700
C492        C  0.04370482  0.35023059  0.31087904     0.03900
C493        C  0.03391417  0.32744951  0.32206911    -0.12600
C494        C  0.02487387  0.32710438  0.34773168    -0.08300
C495        C  0.02522537  0.35047285  0.36222060     0.07300
C496        C  0.03504205  0.37314894  0.35100833    -0.13400
S497        S  0.05693510  0.34938686  0.27852366    -0.30300
H498        H  0.03399474  0.30961724  0.31099557     0.11600
S499        S  0.01276558  0.35306191  0.39471744    -0.27400
H500        H  0.03536228  0.39093403  0.36220633     0.08800
H501        H  0.11366062  0.46590190  0.32866684     0.27200
H502        H  0.04974402  0.32370704  0.27276105     0.22000
H503        H  0.99056349  0.33806519  0.38973821     0.27300
H504        H  0.00188339  0.39095843  0.30508509     0.16200
C505        C  0.05603869  0.64714643  0.16202067    -0.11100
C506        C  0.05331921  0.64484871  0.18890921     0.15400
C507        C  0.04196367  0.66532741  0.20302088     0.02300
C508        C  0.03338380  0.68748110  0.18993870    -0.15500
C509        C  0.03546683  0.68963759  0.16287720    -0.10300
C510        C  0.04754625  0.66929670  0.14889842     0.09100
C511        C  0.06349630  0.62129553  0.20170764     0.10100
S512        S  0.03738428  0.66417722  0.23762766    -0.24600
H513        H  0.02433194  0.70286592  0.20099989     0.20300
S514        S  0.05383594  0.67064379  0.11460055    -0.30300
H515        H  0.06530748  0.63168639  0.15122913     0.10700
C516        C  0.05154189  0.59695922  0.19838203     0.03900
C517        C  0.06224540  0.57500108  0.21031800    -0.12600
C518        C  0.08473730  0.57684872  0.22548553    -0.08300
C519        C  0.09613496  0.60153011  0.22944491     0.07300
C520        C  0.08562732  0.62332933  0.21722559    -0.13400
S521        S  0.02244826  0.59394406  0.17922939    -0.30300
H522        H  0.05335298  0.55621273  0.20738814     0.11600
S523        S  0.12340811  0.60680248  0.25057046    -0.27400
H524        H  0.09461200  0.64212390  0.22002619     0.08800
H525        H  0.06283316  0.69641648  0.11514448     0.27200
H526        H  0.02036087  0.56677843  0.18075470     0.22000
H527        H  0.11506650  0.58912758  0.26958781     0.27300
H528        H  0.03408354  0.63715963  0.23932189     0.16200
C529        C  0.94780770  0.09806485  0.29740282    -0.11100
C530        C  0.93270764  0.12050841  0.30001631     0.15400
C531        C  0.90697817  0.12035876  0.29087613     0.02300
C532        C  0.89689687  0.09779500  0.27971136    -0.15500
C533        C  0.91164814  0.07493874  0.27779139    -0.10300
C534        C  0.93754935  0.07525926  0.28683926     0.09100
C535        C  0.94410459  0.14341051  0.31310587     0.10100
S536        S  0.88580004  0.14808702  0.29319803    -0.24600
H537        H  0.87711449  0.09806857  0.27277273     0.20300
S538        S  0.95826378  0.04716360  0.28675923    -0.30300
H539        H  0.96756874  0.09811113  0.30443034     0.10700
C540        C  0.94925131  0.14313141  0.33988261     0.03900
C541        C  0.95977026  0.16521974  0.35172179    -0.12600
C542        C  0.96490927  0.18796938  0.33753822    -0.08300
C543        C  0.95911894  0.18825017  0.31067909     0.07300
C544        C  0.94926654  0.16589905  0.29876615    -0.13400
S545        S  0.94159129  0.11491000  0.35920512    -0.30300
H546        H  0.96396498  0.16472132  0.37224408     0.11600
S547        S  0.96255354  0.21662970  0.29065007    -0.27400
H548        H  0.94495305  0.16621825  0.27823192     0.08800
H549        H  0.93969336  0.03100014  0.29846066     0.27200
H550        H  0.94896792  0.12530589  0.38327788     0.22000
H551        H  0.94982123  0.23303400  0.30832000     0.27300
H552        H  0.89622479  0.15808666  0.31626158     0.16200
C553        C  0.91519784  0.90058891  0.18787086    -0.11100
C554        C  0.93867741  0.89313164  0.19915302     0.15400
C555        C  0.95000201  0.90892282  0.21836046     0.02300
C556        C  0.93759128  0.93182857  0.22585845    -0.15500
C557        C  0.91371542  0.93904829  0.21503462    -0.10300
C558        C  0.90268296  0.92335897  0.19542380     0.09100
C559        C  0.95158331  0.86967478  0.18910846     0.10100
S560        S  0.97982418  0.90055182  0.23444050    -0.24600
H561        H  0.94622691  0.94361588  0.24093523     0.20300
S562        S  0.87335058  0.93167914  0.17843850    -0.30300
H563        H  0.90681179  0.88876722  0.17266863     0.10700
C564        C  0.94145040  0.84473801  0.19366880     0.03900
C565        C  0.95341290  0.82316937  0.18229080    -0.12600
C566        C  0.97493328  0.82614816  0.16594971    -0.08300
C567        C  0.98535700  0.85119503  0.16185249     0.07300
C568        C  0.97358024  0.87265821  0.17359161    -0.13400
S569        S  0.91315996  0.84047433  0.21376875    -0.30300
H570        H  0.94543203  0.80399722  0.18538386     0.11600
S571        S  0.01395259  0.85609595  0.14228688    -0.27400
H572        H  0.98117900  0.89196751  0.17036683     0.08800
H573        H  0.87927455  0.95826355  0.17650433     0.27200
H574        H  0.91206027  0.81325877  0.21210199     0.22000
H575        H  0.01464667  0.88332179  0.14402451     0.27300
H576        H  0.97649359  0.87352363  0.23287482     0.16200
C577        C  0.17078259  0.06352251  0.64768666    -0.11100
C578        C  0.18064726  0.04556057  0.62982148     0.15400
C579        C  0.17968086  0.01881257  0.63593603     0.02300
C580        C  0.16864118  0.01079182  0.65947244    -0.15500
C581        C  0.15784576  0.02881243  0.67681167    -0.10300
C582        C  0.15939234  0.05554083  0.67088212     0.09100
C583        C  0.19239354  0.05585346  0.60559305     0.10100
S584        S  0.19133928  0.99395556  0.61430863    -0.24600
H585        H  0.16760044  0.99025016  0.66383372     0.20300
S586        S  0.14809831  0.08060170  0.69245960    -0.30300
H587        H  0.17212740  0.08410013  0.64355348     0.10700
C588        C  0.17790883  0.07146949  0.58843139     0.03900
C589        C  0.19034273  0.08375147  0.56766713    -0.12600
C590        C  0.21688803  0.08034428  0.56313073    -0.08300
C591        C  0.23126479  0.06411834  0.57988503     0.07300
C592        C  0.21888747  0.05206382  0.60086088    -0.13400
S593        S  0.14338190  0.07530766  0.59253008    -0.30300
H594        H  0.17924047  0.09584541  0.55461180     0.11600
S595        S  0.26562816  0.05928896  0.57653896    -0.27400
H596        H  0.23018827  0.04038932  0.61414682     0.08800
H597        H  0.15594527  0.06791448  0.71526458     0.27200
H598        H  0.13917502  0.09125287  0.57083497     0.22000
H599        H  0.27102122  0.08496264  0.56902987     0.27300
H600        H  0.18604306  0.00748504  0.59127620     0.16200
C601        C  0.13766694  0.84603130  0.04060275    -0.11100
C602        C  0.14090632  0.82250706  0.05377639     0.15400
C603        C  0.16564598  0.81095765  0.05481813     0.02300
C604        C  0.18657720  0.82329956  0.04277844    -0.15500
C605        C  0.18349874  0.84713020  0.02989427    -0.10300
C606        C  0.15851005  0.85828099  0.02842192     0.09100
C607        C  0.11793181  0.81052573  0.06590218     0.10100
S608        S  0.17187854  0.78058211  0.07106031    -0.24600
H609        H  0.20556653  0.81447856  0.04402345     0.20300
S610        S  0.15154466  0.88734749  0.01031172    -0.30300
H611        H  0.11859706  0.85470640  0.03946401     0.10700
C612        C  0.10968771  0.81806417  0.09074778     0.03900
C613        C  0.08737081  0.80683293  0.10135581    -0.12600
C614        C  0.07303739  0.78816438  0.08760484    -0.08300
C615        C  0.08186037  0.78017898  0.06290975     0.07300
C616        C  0.10396683  0.79169230  0.05221432    -0.13400
S617        S  0.12779623  0.84184859  0.10896817    -0.30300
H618        H  0.08082870  0.81290841  0.12032302     0.11600
S619        S  0.06665228  0.75460339  0.04463720    -0.27400
H620        H  0.11056519  0.78569062  0.03321962     0.08800
H621        H  0.16745097  0.88066413  0.98922552     0.27200
H622        H  0.11223813  0.84134692  0.13130049     0.22000
H623        H  0.06174677  0.73880771  0.06631243     0.27300
H624        H  0.15147514  0.78188032  0.08894193     0.16200
C625        C  0.20819696  0.91982259  0.88225003    -0.11100
C626        C  0.19954754  0.94556892  0.88328597     0.15400
C627        C  0.20333420  0.96003752  0.90617910     0.02300
C628        C  0.21446898  0.94812187  0.92787623    -0.15500
C629        C  0.22259744  0.92210301  0.92713836    -0.10300
C630        C  0.22018330  0.90816754  0.90359877     0.09100
C631        C  0.18597309  0.95651748  0.86046670     0.10100
S632        S  0.19430673  0.99371974  0.90886878    -0.24600
H633        H  0.21652746  0.95922828  0.94557080     0.20300
S634        S  0.23290155  0.87592159  0.89905376    -0.30300
H635        H  0.20580019  0.90880075  0.86453575     0.10700
C636        C  0.19935151  0.96289693  0.83758878     0.03900
C637        C  0.18563655  0.97284572  0.81632687    -0.12600
C638        C  0.15870962  0.97666324  0.81738298    -0.08300
C639        C  0.14552622  0.97091519  0.84079755     0.07300
C640        C  0.15922034  0.96061204  0.86181208    -0.13400
S641        S  0.23398513  0.95874336  0.83563782    -0.30300
H642        H  0.19593595  0.97729975  0.79863676     0.11600
S643        S  0.11154573  0.97704314  0.84567992    -0.27400
H644        H  0.14898608  0.95602007  0.87954492     0.08800
H645        H  0.25578373  0.88059235  0.91307921     0.27200
H646        H  0.23703241  0.96874452  0.81048565     0.22000
H647        H  0.11227806  0.00187758  0.83436547     0.27300
H648        H  0.19904159  0.00005254  0.88281830     0.16200
C649        C  0.10360526  0.28621589  0.94915300    -0.11100
C650        C  0.11569765  0.30703627  0.93653307     0.15400
C651        C  0.10578140  0.31579824  0.91263883     0.02300
C652        C  0.08322306  0.30467364  0.90269619    -0.15500
C653        C  0.07069225  0.28410342  0.91545455    -0.10300
C654        C  0.08158194  0.27433352  0.93864771     0.09100
C655        C  0.13867865  0.31919699  0.94858276     0.10100
S656        S  0.12113047  0.34094273  0.89379190    -0.24600
H657        H  0.07547633  0.31214518  0.88467954     0.20300
S658        S  0.06927025  0.24605828  0.95502566    -0.30300
H659        H  0.11160852  0.27896120  0.96714873     0.10700
C660        C  0.13771220  0.34449028  0.95891156     0.03900
C661        C  0.16029230  0.35567695  0.96901448    -0.12600
C662        C  0.18388689  0.34212708  0.96901178    -0.08300
C663        C  0.18480043  0.31691842  0.95819695     0.07300
C664        C  0.16213405  0.30557110  0.94862299    -0.13400
S665        S  0.10763330  0.36234479  0.95964474    -0.30300
H666        H  0.15949498  0.37495086  0.97730857     0.11600
S667        S  0.21444210  0.29891924  0.95439891    -0.27400
H668        H  0.16295812  0.28631901  0.94021944     0.08800
H669        H  0.06540678  0.23178670  0.93210698     0.27200
H670        H  0.11742412  0.38488458  0.97146582     0.22000
H671        H  0.22941253  0.32067195  0.94756425     0.27300
H672        H  0.14659674  0.33501037  0.90127899     0.16200
C673        C  0.05268624  0.09570044  0.80678487    -0.11100
C674        C  0.06361589  0.11966297  0.80004474     0.15400
C675        C  0.08491315  0.12031131  0.78291883     0.02300
C676        C  0.09486238  0.09699834  0.77315887    -0.15500
C677        C  0.08391492  0.07296006  0.77982978    -0.10300
C678        C  0.06273216  0.07239776  0.79713503     0.09100
C679        C  0.05337182  0.14332062  0.81262312     0.10100
S680        S  0.10059434  0.14998889  0.77293980    -0.24600
H681        H  0.11115766  0.09765569  0.75996688     0.20300
S682        S  0.04875524  0.04265190  0.80901309    -0.30300
H683        H  0.03667167  0.09513049  0.82031915     0.10700
C684        C  0.03155577  0.15640111  0.80284483     0.03900
C685        C  0.02222701  0.17847065  0.81577798    -0.12600
C686        C  0.03408159  0.18756840  0.83856207    -0.08300
C687        C  0.05630845  0.17449661  0.84799532     0.07300
C688        C  0.06549886  0.15248708  0.83506463    -0.13400
S689        S  0.01566698  0.14491569  0.77389478    -0.30300
H690        H  0.00529666  0.18836932  0.80839326     0.11600
S691        S  0.07441524  0.18519335  0.87585957    -0.27400
H692        H  0.08240149  0.14247767  0.84244775     0.08800
H693        H  0.07243017  0.02933381  0.81101228     0.27200
H694        H  0.99569417  0.16344533  0.77368525     0.22000
H695        H  0.07341269  0.21164681  0.86917506     0.27300
H696        H  0.08040780  0.16720657  0.77881734     0.16200
C697        C  0.80198213  0.03046856  0.14180536    -0.11100
C698        C  0.81380759  0.05071889  0.12808701     0.15400
C699        C  0.83744272  0.06099019  0.13712940     0.02300
C700        C  0.84830481  0.05136261  0.16000809    -0.15500
C701        C  0.83631295  0.03141501  0.17416770    -0.10300
C702        C  0.81312934  0.02044156  0.16444490     0.09100
C703        C  0.80024469  0.06199127  0.10548477     0.10100
S704        S  0.85432031  0.08695935  0.12087952    -0.24600
H705        H  0.86615582  0.05987012  0.16701187     0.20300
S706        S  0.79725481  0.99315169  0.17936246    -0.30300
H707        H  0.78393562  0.02240244  0.13477471     0.10700
C708        C  0.80225802  0.05110230  0.08054770     0.03900
C709        C  0.79023978  0.06353953  0.05950071    -0.12600
C710        C  0.77618556  0.08666250  0.06294876    -0.08300
C711        C  0.77308766  0.09658654  0.08836536     0.07300
C712        C  0.78545875  0.08441853  0.10915248    -0.13400
S713        S  0.82126331  0.02217725  0.07540806    -0.30300
H714        H  0.79257783  0.05573463  0.04018418     0.11600
S715        S  0.75301844  0.12418461  0.09587507    -0.27400
H716        H  0.78347213  0.09244699  0.12845010     0.08800
H717        H  0.82035555  0.97963751  0.18448757     0.27200
H718        H  0.81516875  0.01905027  0.04904707     0.22000
H719        H  0.73323995  0.11731535  0.07843860     0.27300
H720        H  0.84542894  0.08145829  0.09577923     0.16200
C721        C  0.85208571  0.19859496  0.97306429    -0.11100
C722        C  0.85886144  0.19542333  0.94693417     0.15400
C723        C  0.84254668  0.18061018  0.93069026     0.02300
C724        C  0.82091760  0.16807968  0.94117471    -0.15500
C725        C  0.81436787  0.17082608  0.96741246    -0.10300
C726        C  0.83000910  0.18667040  0.98340837     0.09100
C727        C  0.88413497  0.20564824  0.93769595     0.10100
S728        S  0.84806417  0.17729559  0.89635638    -0.24600
H729        H  0.80877342  0.15646546  0.92858663     0.20300
S730        S  0.82375118  0.19134760  0.01741924    -0.30300
H731        H  0.86457512  0.20976450  0.98571095     0.10700
C732        C  0.88977024  0.23244096  0.93725182     0.03900
C733        C  0.91386352  0.24092578  0.92786085    -0.12600
C734        C  0.93227770  0.22321103  0.91850315    -0.08300
C735        C  0.92686093  0.19636820  0.91976037     0.07300
C736        C  0.90294718  0.18793702  0.92924630    -0.13400
S737        S  0.86575434  0.25591269  0.94707300    -0.30300
H738        H  0.91797296  0.26149474  0.92675457     0.11600
S739        S  0.94982678  0.17186959  0.91012673    -0.27400
H740        H  0.89892536  0.16731390  0.93006713     0.08800
H741        H  0.81627831  0.16553199  0.02213225     0.27200
H742        H  0.88082190  0.27818453  0.94257406     0.22000
H743        H  0.97187102  0.18581531  0.91797241     0.27300
H744        H  0.86035178  0.20142191  0.89310867     0.16200
C745        C  0.28831975  0.08289368  0.37922443    -0.11100
C746        C  0.29574796  0.05679643  0.38062323     0.15400
C747        C  0.29119711  0.04277414  0.40364990     0.02300
C748        C  0.28007135  0.05536338  0.42496352    -0.15500
C749        C  0.27337818  0.08178937  0.42394825    -0.10300
C750        C  0.27699862  0.09544950  0.40039958     0.09100
C751        C  0.31025234  0.04566082  0.35853517     0.10100
S752        S  0.29999686  0.00911512  0.40740324    -0.24600
H753        H  0.27736987  0.04456985  0.44276318     0.20300
S754        S  0.26751644  0.12879320  0.39582521    -0.30300
H755        H  0.29172188  0.09368541  0.36153173     0.10700
C756        C  0.29799425  0.03913687  0.33511145     0.03900
C757        C  0.31292664  0.03044056  0.31413354    -0.12600
C758        C  0.34003645  0.02822314  0.31595528    -0.08300
C759        C  0.35221763  0.03467268  0.33977875     0.07300
C760        C  0.33711220  0.04321546  0.36067970    -0.13400
S761        S  0.26327002  0.04147889  0.33213085    -0.30300
H762        H  0.30335304  0.02533147  0.29620829     0.11600
S763        S  0.38694428  0.03330997  0.34398066    -0.27400
H764        H  0.34625698  0.04865334  0.37874471     0.08800
H765        H  0.24404887  0.12629141  0.40940746     0.27200
H766        H  0.26212462  0.03714901  0.30526379     0.22000
H767        H  0.38759930  0.03949567  0.37049585     0.27300
H768        H  0.29832045  0.00242455  0.38108038     0.16200
C769        C  0.34688071  0.95403799  0.13436252    -0.11100
C770        C  0.32039254  0.95909607  0.13157532     0.15400
C771        C  0.30723658  0.97293047  0.15111263     0.02300
C772        C  0.32078997  0.98107395  0.17309293    -0.15500
C773        C  0.34731454  0.97588034  0.17619243    -0.10300
C774        C  0.36041622  0.96196442  0.15648090     0.09100
C775        C  0.30674461  0.94781444  0.10912087     0.10100
S776        S  0.27315221  0.98051778  0.14964030    -0.24600
H777        H  0.31043875  0.99175489  0.18790058     0.20300
S778        S  0.39379723  0.95222572  0.15886345    -0.30300
H779        H  0.35688007  0.94301340  0.11955172     0.10700
C780        C  0.30643287  0.96025251  0.08486397     0.03900
C781        C  0.29371489  0.94838725  0.06397178    -0.12600
C782        C  0.28159754  0.92413307  0.06680595    -0.08300
C783        C  0.28134148  0.91216242  0.09149897     0.07300
C784        C  0.29408238  0.92401970  0.11223779    -0.13400
S785        S  0.32243635  0.99108501  0.08055318    -0.30300
H786        H  0.29393517  0.95763404  0.04515364     0.11600
S787        S  0.26463066  0.88218325  0.09813019    -0.27400
H788        H  0.29406884  0.91467736  0.13104218     0.08800
H789        H  0.39169795  0.94393057  0.18471494     0.27200
H790        H  0.31563368  0.99459441  0.05441562     0.22000
H791        H  0.24326428  0.88789276  0.08223176     0.27300
H792        H  0.26959154  0.97720026  0.12291225     0.16200
C793        C  0.42520150  0.88748486  0.28162268    -0.11100
C794        C  0.44490696  0.89078188  0.29995239     0.15400
C795        C  0.45459088  0.91589115  0.30493380     0.02300
C796        C  0.44330452  0.93726623  0.29267042    -0.15500
C797        C  0.42295661  0.93413672  0.27491595    -0.10300
C798        C  0.41448032  0.90876935  0.26871530     0.09100
C799        C  0.45503756  0.86760611  0.31336511     0.10100
S800        S  0.48105475  0.92194543  0.32689252    -0.24600
H801        H  0.45021799  0.95654600  0.29738762     0.20300
S802        S  0.39092329  0.90210807  0.24385565    -0.30300
H803        H  0.41825288  0.86813439  0.27722901     0.10700
C804        C  0.44945318  0.86268411  0.33959793     0.03900
C805        C  0.45964155  0.84045008  0.35143244    -0.12600
C806        C  0.47517180  0.82290128  0.33754438    -0.08300
C807        C  0.48104266  0.82824856  0.31131509     0.07300
C808        C  0.47056347  0.85025169  0.29945686    -0.13400
S809        S  0.42870549  0.88424273  0.35776301    -0.30300
H810        H  0.45500445  0.83641097  0.37146993     0.11600
S811        S  0.50270509  0.80865132  0.29223432    -0.27400
H812        H  0.47504636  0.85425540  0.27934864     0.08800
H813        H  0.39994459  0.92157365  0.22704232     0.27200
H814        H  0.42871485  0.86995251  0.38096476     0.22000
H815        H  0.52045999  0.80461404  0.31249563     0.27300
H816        H  0.49390642  0.89830459  0.32259973     0.16200
C817        C  0.42123542  0.12142879  0.21321283    -0.11100
C818        C  0.44636897  0.12010995  0.20318406     0.15400
C819        C  0.46052908  0.09680087  0.20565895     0.02300
C820        C  0.44871276  0.07501821  0.21679439    -0.15500
C821        C  0.42291909  0.07585203  0.22542812    -0.10300
C822        C  0.40955937  0.09984592  0.22466101     0.09100
C823        C  0.45705819  0.14348339  0.19039001     0.10100
S824        S  0.49334431  0.09330060  0.19429878    -0.24600
H825        H  0.45944711  0.05698483  0.21768430     0.20300
S826        S  0.37799532  0.10467895  0.23867020    -0.30300
H827        H  0.41064670  0.13955633  0.21218599     0.10700
C828        C  0.44671845  0.15258076  0.16682048     0.03900
C829        C  0.45679995  0.17515492  0.15561977    -0.12600
C830        C  0.47717002  0.18887973  0.16731323    -0.08300
C831        C  0.48789078  0.17932890  0.19067797     0.07300
C832        C  0.47745801  0.15701983  0.20212341    -0.13400
S833        S  0.42100444  0.13518122  0.15064559    -0.30300
H834        H  0.44856097  0.18231763  0.13772093     0.11600
S835        S  0.51551834  0.19384004  0.20624484    -0.27400
H836        H  0.48553355  0.14990827  0.22014134     0.08800
H837        H  0.38321853  0.08967431  0.26083868     0.27200
H838        H  0.41830270  0.15217265  0.12950566     0.22000
H839        H  0.52889803  0.19863654  0.18300757     0.27300
H840        H  0.49115311  0.11055323  0.17334089     0.16200
C841        C  0.38402392  0.28342370  0.08479236    -0.11100
C842        C  0.38594090  0.30105215  0.06422487     0.15400
C843        C  0.41060420  0.30798686  0.05470468     0.02300
C844        C  0.43273495  0.29808022  0.06679370    -0.15500
C845        C  0.43089536  0.28125417  0.08810253    -0.10300
C846        C  0.40614981  0.27311639  0.09652006     0.09100
C847        C  0.36196223  0.31342755  0.05477383     0.10100
S848        S  0.41545017  0.33029233  0.02817095    -0.24600
H849        H  0.45158850  0.30425666  0.05999199     0.20300
S850        S  0.40142860  0.24923182  0.12158574    -0.30300
H851        H  0.36509607  0.27779509  0.09186621     0.10700
C852        C  0.34746430  0.30288802  0.03424288     0.03900
C853        C  0.32486078  0.31558675  0.02602101    -0.12600
C854        C  0.31624189  0.33841196  0.03826439    -0.08300
C855        C  0.33030567  0.34804781  0.05975750     0.07300
C856        C  0.35316260  0.33575593  0.06740256    -0.13400
S857        S  0.35823353  0.27373605  0.01813541    -0.30300
H858        H  0.31419999  0.30802812  0.00963123     0.11600
S859        S  0.31962160  0.37510186  0.07910901    -0.27400
H860        H  0.36398550  0.34337922  0.08369559     0.08800
H861        H  0.42284496  0.23394448  0.11449852     0.27200
H862        H  0.33662864  0.27099432  0.00180130     0.22000
H863        H  0.29339816  0.36775362  0.07875636     0.27300
H864        H  0.39067639  0.32878120  0.01722430     0.16200
C865        C  0.65721917  0.20818063  0.04485846    -0.11100
C866        C  0.63609111  0.19305957  0.05259229     0.15400
C867        C  0.63674024  0.16597589  0.04881559     0.02300
C868        C  0.65841425  0.15463966  0.03723044    -0.15500
C869        C  0.67981579  0.16964603  0.02957799    -0.10300
C870        C  0.67915744  0.19682021  0.03374920     0.09100
C871        C  0.61374728  0.20607189  0.06475159     0.10100
S872        S  0.61045547  0.14487398  0.05802513    -0.24600
H873        H  0.65852319  0.13383419  0.03419981     0.20300
S874        S  0.70589019  0.21803109  0.02651446    -0.30300
H875        H  0.65679797  0.22896968  0.04800869     0.10700
C876        C  0.61354791  0.21165841  0.09139468     0.03900
C877        C  0.59162424  0.22316709  0.10243478    -0.12600
C878        C  0.56968477  0.22918045  0.08743234    -0.08300
C879        C  0.57022321  0.22370484  0.06049550     0.07300
C880        C  0.59229268  0.21245231  0.04951169    -0.13400
S881        S  0.64095190  0.20333509  0.11145956    -0.30300
H882        H  0.59155334  0.22730696  0.12297665     0.11600
S883        S  0.54331000  0.22947482  0.03911805    -0.27400
H884        H  0.59254288  0.20804664  0.02899232     0.08800
H885        H  0.72457200  0.20155905  0.03759242     0.27200
H886        H  0.63074867  0.21258498  0.13495491     0.22000
H887        H  0.52558369  0.21607927  0.05489744     0.27300
H888        H  0.60253320  0.15914911  0.07978727     0.16200
C889        C  0.72488797  0.45096378  0.40189313    -0.11100
C890        C  0.69847878  0.44868972  0.39601119     0.15400
C891        C  0.68232406  0.43446410  0.41291328     0.02300
C892        C  0.69305197  0.42185127  0.43438817    -0.15500
C893        C  0.71953049  0.42381560  0.44014052    -0.10300
C894        C  0.73555651  0.43879154  0.42368417     0.09100
C895        C  0.68891048  0.45883532  0.37081381     0.10100
S896        S  0.64782460  0.43195401  0.40831377    -0.24600
H897        H  0.68048248  0.41074117  0.44700398     0.20300
S898        S  0.76997628  0.44180203  0.42829951    -0.30300
H899        H  0.73749682  0.46149027  0.38882742     0.10700
C900        C  0.68965126  0.48547684  0.36452411     0.03900
C901        C  0.68045495  0.49381193  0.34029175    -0.12600
C902        C  0.67037199  0.47608634  0.32225237    -0.08300
C903        C  0.67045602  0.44934181  0.32833328     0.07300
C904        C  0.67954226  0.44109048  0.35247167    -0.13400
S905        S  0.70079056  0.50907559  0.38783371    -0.30300
H906        H  0.68014026  0.51432790  0.33578346     0.11600
S907        S  0.66004145  0.42466111  0.30588746    -0.27400
H908        H  0.67955593  0.42054374  0.35694429     0.08800
H909        H  0.77358121  0.41589791  0.43592613     0.27200
H910        H  0.70160938  0.53027958  0.37070082     0.22000
H911        H  0.66930288  0.43745044  0.28367980     0.27300
H912        H  0.64488873  0.45612984  0.39603319     0.16200
C913        C  0.57891196  0.60065345  0.32147334    -0.11100
C914        C  0.56219050  0.61490297  0.30553324     0.15400
C915        C  0.55840753  0.60692574  0.27964496     0.02300
C916        C  0.57152024  0.58503318  0.27031255    -0.15500
C917        C  0.58829481  0.57071598  0.28628927    -0.10300
C918        C  0.59156305  0.57850152  0.31237263     0.09100
C919        C  0.54960875  0.63826918  0.31652178     0.10100
S920        S  0.53738695  0.62393585  0.25752650    -0.24600
H921        H  0.56885957  0.57935632  0.25028409     0.20300
S922        S  0.61074131  0.56059506  0.33541093    -0.30300
H923        H  0.58186502  0.60669884  0.34136145     0.10700
C924        C  0.53152889  0.63633570  0.33686705     0.03900
C925        C  0.52134948  0.65900159  0.34789922    -0.12600
C926        C  0.52897034  0.68365712  0.33915879    -0.08300
C927        C  0.54738439  0.68546382  0.31894483     0.07300
C928        C  0.55715498  0.66281986  0.30763641    -0.13400
S929        S  0.52103389  0.60498034  0.34848034    -0.30300
H930        H  0.50726227  0.65751657  0.36333596     0.11600
S931        S  0.56068203  0.71586146  0.30797942    -0.27400
H932        H  0.57150462  0.66431703  0.29241224     0.08800
H933        H  0.60255304  0.53607442  0.32665528     0.27200
H934        H  0.50574875  0.61413934  0.36906918     0.22000
H935        H  0.56380586  0.72606851  0.33306579     0.27300
H936        H  0.51979241  0.63276637  0.27630890     0.16200
C937        C  0.55215945  0.41060655  0.22271634    -0.11100
C938        C  0.56353192  0.39641668  0.20256009     0.15400
C939        C  0.58770324  0.40429297  0.19263121     0.02300
C940        C  0.59987430  0.42618789  0.20291053    -0.15500
C941        C  0.58869076  0.44047839  0.22319516    -0.10300
C942        C  0.56456506  0.43229796  0.23335879     0.09100
C943        C  0.54954963  0.37393026  0.19163729     0.10100
S944        S  0.60395810  0.38741159  0.16669380    -0.24600
H945        H  0.61831393  0.43213375  0.19488429     0.20300
S946        S  0.54903526  0.44785179  0.26044543    -0.30300
H947        H  0.53361762  0.40452121  0.23040378     0.10700
C948        C  0.54827245  0.35004454  0.20482163     0.03900
C949        C  0.53681178  0.32860859  0.19260157    -0.12600
C950        C  0.52664054  0.33057707  0.16741494    -0.08300
C951        C  0.52678166  0.35504645  0.15491667     0.07300
C952        C  0.53846430  0.37627146  0.16702665    -0.13400
S953        S  0.56263604  0.34647552  0.23650933    -0.30300
H954        H  0.53672922  0.30999106  0.20230048     0.11600
S955        S  0.51207496  0.36076795  0.12379418    -0.27400
H956        H  0.53910119  0.39479862  0.15711488     0.08800
H957        H  0.57190790  0.45005908  0.27506201     0.27200
H958        H  0.55503062  0.32059606  0.24060858     0.22000
H959        H  0.49030775  0.34514068  0.12876647     0.27300
H960        H  0.59455433  0.36254571  0.17269244     0.16200
C961        C  0.80500516  0.45536785  0.66432797    -0.11100
C962        C  0.81723583  0.45902903  0.64039906     0.15400
C963        C  0.84085801  0.47276370  0.63940279     0.02300
C964        C  0.85188381  0.48203194  0.66238435    -0.15500
C965        C  0.83984253  0.47809585  0.68647750    -0.10300
C966        C  0.81622302  0.46423616  0.68733695     0.09100
C967        C  0.80575661  0.44635107  0.61737992     0.10100
S968        S  0.85817449  0.47869266  0.60964194    -0.24600
H969        H  0.87001256  0.49254683  0.66139558     0.20300
S970        S  0.80050371  0.45523084  0.71714331    -0.30300
H971        H  0.78713795  0.44438981  0.66519497     0.10700
C972        C  0.81583343  0.42292553  0.60763442     0.03900
C973        C  0.80345410  0.41062892  0.58679250    -0.12600
C974        C  0.78107974  0.42120728  0.57540333    -0.08300
C975        C  0.77083400  0.44456838  0.58564502     0.07300
C976        C  0.78338778  0.45692123  0.60628966    -0.13400
S977        S  0.84413459  0.40837615  0.62216908    -0.30300
H978        H  0.81139173  0.39274716  0.57920108     0.11600
S979        S  0.74117655  0.45898009  0.57430695    -0.27400
H980        H  0.77535092  0.47466349  0.61417222     0.08800
H981        H  0.82358875  0.44808630  0.72971624     0.27200
H982        H  0.84645374  0.38756473  0.60471036     0.22000
H983        H  0.72783309  0.43523099  0.57266844     0.27300
H984        H  0.83680463  0.47691558  0.59293354     0.16200
C985        C  0.95123990  0.40430809  0.78300177    -0.11100
C986        C  0.93846845  0.38975584  0.80204692     0.15400
C987        C  0.91391967  0.39787056  0.81083548     0.02300
C988        C  0.90301926  0.42061859  0.80098890    -0.15500
C989        C  0.91585039  0.43547174  0.78216163    -0.10300
C990        C  0.94003584  0.42677846  0.77265944     0.09100
C991        C  0.95163303  0.36706578  0.81362905     0.10100
S992        S  0.89566248  0.38017740  0.83480785    -0.24600
H993        H  0.88440971  0.42690273  0.80833928     0.20300
S994        S  0.95715116  0.44282901  0.74683341    -0.30300
H995        H  0.97002857  0.39804523  0.77610250     0.10700
C996        C  0.95543891  0.34384037  0.79975145     0.03900
C997        C  0.96601851  0.32221134  0.81247295    -0.12600
C998        C  0.97279599  0.32333092  0.83883175    -0.08300
C999        C  0.97017223  0.34722533  0.85218080     0.07300
C1000       C  0.95944077  0.36859988  0.83952561    -0.13400
S1001       S  0.94543093  0.34127869  0.76634128    -0.30300
H1002       H  0.96817565  0.30410495  0.80207815     0.11600
S1003       S  0.98056697  0.35215904  0.88513386    -0.27400
H1004       H  0.95697889  0.38665157  0.85001580     0.08800
H1005       H  0.93481499  0.44778841  0.73205680     0.27200
H1006       H  0.95409278  0.31572509  0.76231888     0.22000
H1007       H  0.00394913  0.33851619  0.88202800     0.27300
H1008       H  0.90437062  0.35542514  0.82738733     0.16200
C1009       C  0.73190484  0.56827463  0.10901200    -0.11100
C1010       C  0.70609588  0.57114823  0.11696888     0.15400
C1011       C  0.68945480  0.58735496  0.10243453     0.02300
C1012       C  0.69898561  0.60055699  0.08076978    -0.15500
C1013       C  0.72466876  0.59745597  0.07259527    -0.10300
C1014       C  0.74137492  0.58131378  0.08713743     0.09100
C1015       C  0.69752751  0.55915126  0.14170499     0.10100
S1016       S  0.65571474  0.59169886  0.11026516    -0.24600
H1017       H  0.68598934  0.61281792  0.06974397     0.20300
S1018       S  0.77529398  0.57787685  0.07980635    -0.30300
H1019       H  0.74497050  0.55644057  0.12040784     0.10700
C1020       C  0.69588434  0.53200772  0.14511192     0.03900
C1021       C  0.68546116  0.52200015  0.16822794    -0.12600
C1022       C  0.67656094  0.53860400  0.18788731    -0.08300
C1023       C  0.67974649  0.56567101  0.18496820     0.07300
C1024       C  0.69004889  0.57558103  0.16200158    -0.13400
S1025       S  0.70550778  0.51016437  0.11951918    -0.30300
H1026       H  0.68310817  0.50125271  0.17051636     0.11600
S1027       S  0.67134170  0.58863127  0.20993169    -0.27400
H1028       H  0.69195638  0.59640321  0.15975370     0.08800
H1029       H  0.77879161  0.60376970  0.07190892     0.27200
H1030       H  0.70050943  0.48695680  0.13294897     0.22000
H1031       H  0.67764684  0.57221120  0.23075580     0.27300
H1032       H  0.65201736  0.56679976  0.12076266     0.16200
C1033       C  0.88547077  0.72899998  0.08235560    -0.11100
C1034       C  0.88792944  0.71154605  0.06167520     0.15400
C1035       C  0.91289111  0.70561010  0.05217960     0.02300
C1036       C  0.93469965  0.71631704  0.06423564    -0.15500
C1037       C  0.93236107  0.73320248  0.08545457    -0.10300
C1038       C  0.90726960  0.74004170  0.09416246     0.09100
C1039       C  0.86416830  0.69932592  0.05103699     0.10100
S1040       S  0.91836937  0.68416263  0.02510723    -0.24600
H1041       H  0.95373458  0.71097739  0.05724624     0.20300
S1042       S  0.90159074  0.76314319  0.11974935    -0.30300
H1043       H  0.86636828  0.73394920  0.08945842     0.10700
C1044       C  0.85869825  0.67286273  0.05512717     0.03900
C1045       C  0.83624468  0.66199117  0.04439462    -0.12600
C1046       C  0.81873389  0.67701834  0.02988407    -0.08300
C1047       C  0.82430135  0.70365239  0.02593576     0.07300
C1048       C  0.84671787  0.71450026  0.03677413    -0.13400
S1049       S  0.87979232  0.65311668  0.07488528    -0.30300
H1050       H  0.83203654  0.64170669  0.04781703     0.11600
S1051       S  0.80431354  0.72465533  0.00652277    -0.27400
H1052       H  0.85091020  0.73485552  0.03359950     0.08800
H1053       H  0.92170620  0.77996174  0.11231860     0.27200
H1054       H  0.86621345  0.62965764  0.07190622     0.22000
H1055       H  0.80103762  0.70643367  0.98649449     0.27300
H1056       H  0.89457902  0.68855351  0.01270245     0.16200
C1057       C  0.83837761  0.54919779  0.87086063    -0.11100
C1058       C  0.81260541  0.55718953  0.86822358     0.15400
C1059       C  0.79992003  0.55368313  0.84430463     0.02300
C1060       C  0.81335753  0.54275034  0.82348144    -0.15500
C1061       C  0.83931187  0.53486492  0.82586037    -0.10300
C1062       C  0.85173403  0.53779646  0.85020060     0.09100
C1063       C  0.79986020  0.57022943  0.89035116     0.10100
S1064       S  0.76673589  0.56313548  0.83898938    -0.24600
H1065       H  0.80342073  0.54069665  0.80512294     0.20300
S1066       S  0.88431484  0.52716257  0.85656925    -0.30300
H1067       H  0.84815565  0.55184625  0.88924237     0.10700
C1068       C  0.79266615  0.55650837  0.91280435     0.03900
C1069       C  0.78099814  0.56985660  0.93342950    -0.12600
C1070       C  0.77618166  0.59669984  0.93203367    -0.08300
C1071       C  0.78237475  0.61003557  0.90882401     0.07300
C1072       C  0.79460938  0.59681143  0.88861354    -0.13400
S1073       S  0.79793196  0.52192859  0.91496423    -0.30300
H1074       H  0.77601839  0.55938097  0.95089081     0.11600
S1075       S  0.77427643  0.64354639  0.90308419    -0.27400
H1076       H  0.79969843  0.60724024  0.87111453     0.08800
H1077       H  0.88065736  0.50266373  0.84509340     0.27200
H1078       H  0.78940456  0.51895484  0.94065179     0.22000
H1079       H  0.74929823  0.64139250  0.91372281     0.27300
H1080       H  0.75826918  0.55874355  0.86447785     0.16200
C1081       C  0.52425541  0.13578886  0.67895394    -0.11100
C1082       C  0.55108904  0.13178490  0.67766696     0.15400
C1083       C  0.56678368  0.15027686  0.66500860     0.02300
C1084       C  0.55529444  0.17189991  0.65345102    -0.15500
C1085       C  0.52853948  0.17607995  0.65503043    -0.10300
C1086       C  0.51283279  0.15776745  0.66791106     0.09100
C1087       C  0.56197807  0.10769185  0.68879415     0.10100
S1088       S  0.60155828  0.14778132  0.66346280    -0.24600
H1089       H  0.56744923  0.18599986  0.64372334     0.20300
S1090       S  0.47814016  0.16070289  0.66998697    -0.30300
H1091       H  0.51209081  0.12145955  0.68832000     0.10700
C1092       C  0.56062700  0.10253151  0.71556634     0.03900
C1093       C  0.57127723  0.07950607  0.72526319    -0.12600
C1094       C  0.58353426  0.06169943  0.70879890    -0.08300
C1095       C  0.58431735  0.06660563  0.68190247     0.07300
C1096       C  0.57363721  0.08956578  0.67221967    -0.13400
S1097       S  0.54673421  0.12590812  0.73761820    -0.30300
H1098       H  0.57099573  0.07581342  0.74590349     0.11600
S1099       S  0.59790402  0.04405582  0.65892784    -0.27400
H1100       H  0.57426452  0.09330259  0.65157737     0.08800
H1101       H  0.47487412  0.17232233  0.64556654     0.27200
H1102       H  0.54879903  0.11069652  0.76013402     0.22000
H1103       H  0.59064877  0.02160185  0.67260521     0.27300
H1104       H  0.60458555  0.13505115  0.68734988     0.16200
C1105       C  0.69085745  0.05588899  0.90525006    -0.11100
C1106       C  0.69326246  0.06912477  0.88166282     0.15400
C1107       C  0.70471119  0.09395765  0.88131589     0.02300
C1108       C  0.71339704  0.10502805  0.90446615    -0.15500
C1109       C  0.71133451  0.09177077  0.92817641    -0.10300
C1110       C  0.69944241  0.06700219  0.92848208     0.09100
C1111       C  0.68206174  0.05738824  0.85803068     0.10100
S1112       S  0.70890942  0.11246507  0.85196417    -0.24600
H1113       H  0.72243188  0.12398904  0.90379748     0.20300
S1114       S  0.69322561  0.04920447  0.95784143    -0.30300
H1115       H  0.68155356  0.03704557  0.90563213     0.10700
C1116       C  0.69477499  0.03738439  0.84452328     0.03900
C1117       C  0.68363024  0.02730835  0.82185751    -0.12600
C1118       C  0.65975431  0.03653779  0.81259081    -0.08300
C1119       C  0.64719307  0.05681568  0.82626215     0.07300
C1120       C  0.65839180  0.06680536  0.84881763    -0.13400
S1121       S  0.72534987  0.02494852  0.85598424    -0.30300
H1122       H  0.69336423  0.01184023  0.81156155     0.11600
S1123       S  0.61735893  0.07152250  0.81571089    -0.27400
H1124       H  0.64872925  0.08232921  0.85915851     0.08800
H1125       H  0.68508679  0.07114444  0.97187099     0.27200
H1126       H  0.72703757  0.00408644  0.83850422     0.22000
H1127       H  0.62456619  0.07252598  0.78945405     0.27300
H1128       H  0.71175558  0.09109619  0.83530597     0.16200
C1129       C  0.61347639  0.71928078  0.91004647    -0.11100
C1130       C  0.61198143  0.70816840  0.93475312     0.15400
C1131       C  0.58783123  0.70700647  0.94749215     0.02300
C1132       C  0.56563655  0.71610250  0.93489025    -0.15500
C1133       C  0.56692760  0.72656619  0.90982800    -0.10300
C1134       C  0.59134498  0.72872131  0.89757569     0.09100
C1135       C  0.63563833  0.69666365  0.94610651     0.10100
S1136       S  0.58387104  0.69335033  0.97941288    -0.24600
H1137       H  0.54710294  0.71450050  0.94456455     0.20300
S1138       S  0.59576803  0.74393200  0.86645178    -0.30300
H1139       H  0.63203433  0.72046399  0.90035306     0.10700
C1140       C  0.63985627  0.66972228  0.94550306     0.03900
C1141       C  0.66198579  0.65936102  0.95733873    -0.12600
C1142       C  0.68039491  0.67538532  0.96956814    -0.08300
C1143       C  0.67613928  0.70261176  0.96965419     0.07300
C1144       C  0.65399966  0.71286495  0.95776849    -0.13400
S1145       S  0.61734626  0.64863227  0.92894835    -0.30300
H1146       H  0.66510748  0.63861199  0.95668822     0.11600
S1147       S  0.69764311  0.72542606  0.98494575    -0.27400
H1148       H  0.65074596  0.73363629  0.95808741     0.08800
H1149       H  0.57775397  0.76389188  0.87096116     0.27200
H1150       H  0.63013836  0.62517414  0.93437645     0.22000
H1151       H  0.69841358  0.71168377  0.00847951     0.27300
H1152       H  0.60887230  0.69902155  0.98844768     0.16200
C1153       C  0.43466489  0.64377747  0.83643138    -0.11100
C1154       C  0.44573586  0.63428403  0.81354483     0.15400
C1155       C  0.46597139  0.64834077  0.80169251     0.02300
C1156       C  0.47521846  0.67101652  0.81341150    -0.15500
C1157       C  0.46428467  0.68052793  0.83644315    -0.10300
C1158       C  0.44338345  0.66683209  0.84777486     0.09100
C1159       C  0.43497834  0.61024018  0.80209821     0.10100
S1160       S  0.48063186  0.63856865  0.77153834    -0.24600
H1161       H  0.49109238  0.68135316  0.80438688     0.20300
S1162       S  0.42606246  0.67824834  0.87584925    -0.30300
H1163       H  0.41873933  0.63334514  0.84526980     0.10700
C1164       C  0.44884025  0.58670771  0.80204476     0.03900
C1165       C  0.43773806  0.56459845  0.79068436    -0.12600
C1166       C  0.41267272  0.56531676  0.78014091    -0.08300
C1167       C  0.39872275  0.58896600  0.78049227     0.07300
C1168       C  0.41009430  0.61110098  0.79141638    -0.13400
S1169       S  0.48017021  0.58458525  0.81738357    -0.30300
H1170       H  0.44833166  0.54648067  0.79066050     0.11600
S1171       S  0.36688634  0.59166955  0.76620228    -0.27400
H1172       H  0.39967777  0.62932608  0.79155447     0.08800
H1173       H  0.42546561  0.70429736  0.86769346     0.27200
H1174       H  0.48324710  0.55760929  0.81464599     0.22000
H1175       H  0.36213713  0.61759626  0.77323932     0.27300
H1176       H  0.45834397  0.62716082  0.76089122     0.16200
C1177       C  0.52607337  0.85525617  0.80249978    -0.11100
C1178       C  0.55250765  0.86009226  0.80644395     0.15400
C1179       C  0.56710854  0.84281144  0.82178810     0.02300
C1180       C  0.55483579  0.82181650  0.83368357    -0.15500
C1181       C  0.52836038  0.81704158  0.82998417    -0.10300
C1182       C  0.51385366  0.83395072  0.81406263     0.09100
C1183       C  0.56388283  0.88429636  0.79603844     0.10100
S1184       S  0.60148133  0.84632786  0.82669132    -0.24600
H1185       H  0.56618959  0.80880014  0.84562895     0.20300
S1186       S  0.47953910  0.83039825  0.80899833    -0.30300
H1187       H  0.51472306  0.86865374  0.79098102     0.10700
C1188       C  0.56631282  0.88860241  0.76919866     0.03900
C1189       C  0.57714167  0.91192542  0.76036826    -0.12600
C1190       C  0.58579345  0.93086434  0.77785419    -0.08300
C1191       C  0.58305259  0.92665109  0.80471309     0.07300
C1192       C  0.57221086  0.90341762  0.81349881    -0.13400
S1193       S  0.55685613  0.86392204  0.74624668    -0.30300
H1194       H  0.57962390  0.91513962  0.73979421     0.11600
S1195       S  0.59227021  0.95039836  0.82866447    -0.27400
H1196       H  0.57002810  0.90026297  0.83413217     0.08800
H1197       H  0.47401152  0.82274893  0.83455147     0.27200
H1198       H  0.56139743  0.87862232  0.72375537     0.22000
H1199       H  0.58645918  0.97226082  0.81344190     0.27300
H1200       H  0.60661597  0.85791615  0.80258505     0.16200
C1201       C  0.39548446  0.78518165  0.94320037    -0.11100
C1202       C  0.38548933  0.80844380  0.93333685     0.15400
C1203       C  0.39741416  0.82012969  0.91171695     0.02300
C1204       C  0.41912739  0.80841952  0.90055857    -0.15500
C1205       C  0.42919253  0.78503581  0.91028758    -0.10300
C1206       C  0.41690813  0.77317878  0.93174114     0.09100
C1207       C  0.36274283  0.82020919  0.94608495     0.10100
S1208       S  0.38596754  0.85001250  0.89755894    -0.24600
H1209       H  0.42827075  0.81771651  0.88411171     0.20300
S1210       S  0.42668888  0.74221565  0.94463974    -0.30300
H1211       H  0.38620988  0.77608847  0.95968927     0.10700
C1212       C  0.33767104  0.81018841  0.94230287     0.03900
C1213       C  0.31649544  0.82260423  0.95392497    -0.12600
C1214       C  0.31989971  0.84496104  0.96911151    -0.08300
C1215       C  0.34523392  0.85440777  0.97350011     0.07300
C1216       C  0.36628707  0.84209505  0.96175333    -0.13400
S1217       S  0.33256815  0.78238402  0.92162806    -0.30300
H1218       H  0.29712798  0.81538477  0.95048806     0.11600
S1219       S  0.35213962  0.88152199  0.99445270    -0.27400
H1220       H  0.38563723  0.84955472  0.96490602     0.08800
H1221       H  0.43029610  0.73066136  0.92021198     0.27200
H1222       H  0.30556866  0.78099452  0.92469399     0.22000
H1223       H  0.33309564  0.87524260  0.01288286     0.27300
H1224       H  0.35967265  0.84635585  0.90340851     0.16200
C1225       C  0.95603428  0.60198085  0.71598934    -0.11100
C1226       C  0.94020518  0.62095389  0.70471131     0.15400
C1227       C  0.91309583  0.61818017  0.70606542     0.02300
C1228       C  0.90247395  0.59637476  0.71816535    -0.15500
C1229       C  0.91817250  0.57681122  0.72887212    -0.10300
C1230       C  0.94540805  0.58025042  0.72840564     0.09100
C1231       C  0.95245925  0.64314781  0.69123971     0.10100
S1232       S  0.89086922  0.64157007  0.69258015    -0.24600
H1233       H  0.88161174  0.59439554  0.71848161     0.20300
S1234       S  0.96774046  0.55823722  0.74370344    -0.30300
H1235       H  0.97686517  0.60428290  0.71532689     0.10700
C1236       C  0.95488770  0.66766330  0.70301310     0.03900
C1237       C  0.96512427  0.68849495  0.68873615    -0.12600
C1238       C  0.97329638  0.68526177  0.66292191    -0.08300
C1239       C  0.97200362  0.66014693  0.65176710     0.07300
C1240       C  0.96131274  0.63959479  0.66587891    -0.13400
S1241       S  0.94482046  0.67236512  0.73615830    -0.30300
H1242       H  0.96626080  0.70750266  0.69757526     0.11600
S1243       S  0.98445335  0.65260692  0.62006842    -0.27400
H1244       H  0.95989084  0.62058155  0.65701972     0.08800
H1245       H  0.95335803  0.55657296  0.76678155     0.27200
H1246       H  0.95319797  0.69823421  0.73839699     0.22000
H1247       H  0.00725284  0.66718512  0.62331377     0.27300
H1248       H  0.90691037  0.65038233  0.67248603     0.16200
C1249       C  0.06864527  0.88870215  0.71800638    -0.11100
C1250       C  0.04768719  0.89227855  0.70119320     0.15400
C1251       C  0.03797982  0.91755543  0.69707170     0.02300
C1252       C  0.05077701  0.93881351  0.70812987    -0.15500
C1253       C  0.07281662  0.93537690  0.72368102    -0.10300
C1254       C  0.08097795  0.90983825  0.72964375     0.09100
C1255       C  0.03769774  0.86934969  0.68712142     0.10100
S1256       S  0.00996684  0.92399730  0.67726439    -0.24600
H1257       H  0.04394968  0.95822108  0.70384722     0.20300
S1258       S  0.10662033  0.90278126  0.75224788    -0.30300
H1259       H  0.07570589  0.86926136  0.72178069     0.10700
C1260       C  0.04364878  0.86525829  0.66081947     0.03900
C1261       C  0.03560728  0.84228596  0.64870816    -0.12600
C1262       C  0.02194005  0.82306372  0.66236900    -0.08300
C1263       C  0.01624847  0.82722924  0.68887420     0.07300
C1264       C  0.02396122  0.85036088  0.70081860    -0.13400
S1265       S  0.06242253  0.88879909  0.64293760    -0.30300
H1266       H  0.04009915  0.83924092  0.62846583     0.11600
S1267       S  0.00070884  0.80332315  0.70900655    -0.27400
H1268       H  0.01988094  0.85329882  0.72119104     0.08800
H1269       H  0.10063610  0.92335869  0.76912955     0.27200
H1270       H  0.06186273  0.87587249  0.61896045     0.22000
H1271       H  0.01552987  0.78249880  0.69949069     0.27300
H1272       H  0.99807533  0.89974146  0.68085715     0.16200
C1273       C  0.67270864  0.92586549  0.65197364    -0.11100
C1274       C  0.69120763  0.94062782  0.63864464     0.15400
C1275       C  0.69824831  0.96523829  0.64836199     0.02300
C1276       C  0.68599898  0.97492088  0.67048852    -0.15500
C1277       C  0.66715425  0.96038512  0.68363617    -0.10300
C1278       C  0.66106479  0.93516562  0.67459160     0.09100
C1279       C  0.70184001  0.93038433  0.61404155     0.10100
S1280       S  0.72257721  0.98529346  0.63334478    -0.24600
H1281       H  0.69095591  0.99420434  0.67722523     0.20300
S1282       S  0.63928251  0.91354420  0.69127877    -0.30300
H1283       H  0.66737110  0.90687025  0.64471489     0.10700
C1284       C  0.71698736  0.90767697  0.61333901     0.03900
C1285       C  0.72593123  0.89833756  0.58946744    -0.12600
C1286       C  0.72015649  0.91121036  0.56614551    -0.08300
C1287       C  0.70486585  0.93400306  0.56702618     0.07300
C1288       C  0.69608823  0.94335457  0.59088946    -0.13400
S1289       S  0.72559942  0.89098341  0.64288299    -0.30300
H1290       H  0.73772176  0.88099038  0.58901233     0.11600
S1291       S  0.69475399  0.95145505  0.53855354    -0.27400
H1292       H  0.68415973  0.96064189  0.59140083     0.08800
H1293       H  0.64754886  0.92076748  0.71622372     0.27200
H1294       H  0.74118481  0.87177752  0.63144552     0.22000
H1295       H  0.68732814  0.92898255  0.52497220     0.27300
H1296       H  0.73775032  0.96469356  0.62397290     0.16200
C1297       C  0.64241500  0.83177507  0.44177225    -0.11100
C1298       C  0.63634998  0.80798979  0.45338630     0.15400
C1299       C  0.65331280  0.79731250  0.47193277     0.02300
C1300       C  0.67599251  0.81072320  0.47843112    -0.15500
C1301       C  0.68189763  0.83483770  0.46713466    -0.10300
C1302       C  0.66500939  0.84516669  0.44821228     0.09100
C1303       C  0.61281714  0.79448713  0.44441540     0.10100
S1304       S  0.64704869  0.76691764  0.48807906    -0.24600
H1305       H  0.68876188  0.80260383  0.49296804     0.20300
S1306       S  0.67168557  0.87460967  0.43059402    -0.30300
H1307       H  0.62963970  0.83970653  0.42712161     0.10700
C1308       C  0.58814559  0.80208581  0.45303619     0.03900
C1309       C  0.56610793  0.79172344  0.44109022    -0.12600
C1310       C  0.56831053  0.77400454  0.42052857    -0.08300
C1311       C  0.59314357  0.76505141  0.41315762     0.07300
C1312       C  0.61513308  0.77554393  0.42513498    -0.13400
S1313       S  0.58478368  0.82563436  0.47868172    -0.30300
H1314       H  0.54714468  0.79839451  0.44699801     0.11600
S1315       S  0.59718889  0.74014904  0.38880586    -0.27400
H1316       H  0.63426605  0.76964326  0.41896182     0.08800
H1317       H  0.69846862  0.87017358  0.42857061     0.27200
H1318       H  0.55826886  0.82138782  0.48312876     0.22000
H1319       H  0.62422072  0.73780917  0.39084241     0.27300
H1320       H  0.61994904  0.76781872  0.48623087     0.16200
C1321       C  0.85047268  0.80197994  0.52325506    -0.11100
C1322       C  0.86778040  0.81726630  0.53750120     0.15400
C1323       C  0.86257231  0.84387903  0.54098617     0.02300
C1324       C  0.83961021  0.85432924  0.53126776    -0.15500
C1325       C  0.82179399  0.83902511  0.51745625    -0.10300
C1326       C  0.82784134  0.81261223  0.51278063     0.09100
C1327       C  0.89017555  0.80457879  0.54992583     0.10100
S1328       S  0.88398132  0.86537586  0.55833761    -0.24600
H1329       H  0.83553310  0.87463259  0.53487266     0.20300
S1330       S  0.80814564  0.79158468  0.49310185    -0.30300
H1331       H  0.85465405  0.78158546  0.52029974     0.10700
C1332       C  0.88881072  0.79605319  0.57574724     0.03900
C1333       C  0.91057054  0.78469192  0.58719947    -0.12600
C1334       C  0.93372443  0.78132247  0.57330740    -0.08300
C1335       C  0.93458833  0.78890384  0.54695437     0.07300
C1336       C  0.91290428  0.80067701  0.53566690    -0.13400
S1337       S  0.85935677  0.79975904  0.59419714    -0.30300
H1338       H  0.90967316  0.77895080  0.60734036     0.11600
S1339       S  0.96217439  0.78325964  0.52640964    -0.27400
H1340       H  0.91366799  0.80673882  0.51558918     0.08800
H1341       H  0.80412362  0.81027315  0.47364572     0.27200
H1342       H  0.86707394  0.78465409  0.61553025     0.22000
H1343       H  0.96762205  0.75856983  0.53668098     0.27300
H1344       H  0.90703025  0.85229959  0.55227391     0.16200
C1345       C  0.80541446  0.95245989  0.40642299    -0.11100
C1346       C  0.79669030  0.94450808  0.38198274     0.15400
C1347       C  0.77782451  0.92482324  0.38023833     0.02300
C1348       C  0.76870759  0.91297550  0.40281981    -0.15500
C1349       C  0.77773572  0.92045246  0.42737535    -0.10300
C1350       C  0.79641069  0.94051525  0.42907438     0.09100
C1351       C  0.80954952  0.95509971  0.35867388     0.10100
S1352       S  0.76508699  0.91351756  0.34975377    -0.24600
H1353       H  0.75435208  0.89773820  0.40115657     0.20300
S1354       S  0.81110214  0.95039138  0.45913743    -0.30300
H1355       H  0.82021726  0.96729536  0.40777017     0.10700
C1356       C  0.80228520  0.97907682  0.34784478     0.03900
C1357       C  0.81493647  0.98805980  0.32552506    -0.12600
C1358       C  0.83492339  0.97366322  0.31395022    -0.08300
C1359       C  0.84206339  0.94952221  0.32492666     0.07300
C1360       C  0.82939707  0.94063127  0.34716564    -0.13400
S1361       S  0.77668829  0.99800284  0.36227183    -0.30300
H1362       H  0.80952246  0.00658406  0.31726148     0.11600
S1363       S  0.86640590  0.92864358  0.31110667    -0.27400
H1364       H  0.83483135  0.92208770  0.35544001     0.08800
H1365       H  0.81450343  0.92492099  0.46834503     0.27200
H1366       H  0.77683576  0.01816862  0.34392148     0.22000
H1367       H  0.85948883  0.93358970  0.28522656     0.27300
H1368       H  0.76753028  0.93723957  0.33657652     0.16200
C1369       C  0.36500181  0.66473411  0.45991452    -0.11100
C1370       C  0.36401627  0.69159026  0.45601919     0.15400
C1371       C  0.34161492  0.70545197  0.46316475     0.02300
C1372       C  0.32021770  0.69197140  0.47285379    -0.15500
C1373       C  0.32090057  0.66490938  0.47629286    -0.10300
C1374       C  0.34405081  0.65136389  0.47053760     0.09100
C1375       C  0.38623324  0.70426781  0.44330735     0.10100
S1376       S  0.33918650  0.74024919  0.46033262    -0.24600
H1377       H  0.30284396  0.70274021  0.47756732     0.20300
S1378       S  0.34868418  0.61732916  0.47709244    -0.30300
H1379       H  0.38237827  0.65413395  0.45479714     0.10700
C1380       C  0.41020319  0.70686053  0.45593402     0.03900
C1381       C  0.43112618  0.71773897  0.44257521    -0.12600
C1382       C  0.42863589  0.72619041  0.41678066    -0.08300
C1383       C  0.40411115  0.72442716  0.40459527     0.07300
C1384       C  0.38338913  0.71317051  0.41786192    -0.13400
S1385       S  0.41413914  0.69635308  0.48907570    -0.30300
H1386       H  0.44969313  0.71910100  0.45216284     0.11600
S1387       S  0.39756816  0.73655341  0.37254545    -0.27400
H1388       H  0.36480288  0.71137748  0.40830383     0.08800
H1389       H  0.33713614  0.61838206  0.50175451     0.27200
H1390       H  0.43941951  0.70585455  0.49248623     0.22000
H1391       H  0.41038985  0.76027695  0.37674412     0.27300
H1392       H  0.36561424  0.74537527  0.46424400     0.16200
C1393       C  0.16085087  0.69968301  0.55367014    -0.11100
C1394       C  0.13842242  0.68466866  0.55620471     0.15400
C1395       C  0.13897840  0.65821936  0.54932455     0.02300
C1396       C  0.16165836  0.64758522  0.53916163    -0.15500
C1397       C  0.18423385  0.66255645  0.53639094    -0.10300
C1398       C  0.18384799  0.68885083  0.54440305     0.09100
C1399       C  0.11472905  0.69714085  0.56609006     0.10100
S1400       S  0.11145958  0.63704959  0.55315337    -0.24600
H1401       H  0.16161732  0.62736340  0.53341628     0.20300
S1402       S  0.21206104  0.70936793  0.54453915    -0.30300
H1403       H  0.16052516  0.71990082  0.55944679     0.10700
C1404       C  0.11186689  0.70282900  0.59254117     0.03900
C1405       C  0.08884681  0.71410510  0.60127800    -0.12600
C1406       C  0.06842073  0.71983242  0.58415154    -0.08300
C1407       C  0.07157939  0.71413737  0.55746703     0.07300
C1408       C  0.09473760  0.70307346  0.54878262    -0.13400
S1409       S  0.13719639  0.69487748  0.61532119    -0.30300
H1410       H  0.08676278  0.71836174  0.62168940     0.11600
S1411       S  0.04678455  0.71950873  0.53357622    -0.27400
H1412       H  0.09704995  0.69858063  0.52841123     0.08800
H1413       H  0.22824954  0.69033864  0.55547473     0.27200
H1414       H  0.12580690  0.70663800  0.63708973     0.22000
H1415       H  0.02739782  0.70713847  0.54818387     0.27300
H1416       H  0.10166349  0.64912109  0.57550042     0.16200
C1417       C  0.19754421  0.55727065  0.34292890    -0.11100
C1418       C  0.18603398  0.55279402  0.36708959     0.15400
C1419       C  0.16219722  0.53956392  0.36833584     0.02300
C1420       C  0.14999154  0.53185271  0.34546093    -0.15500
C1421       C  0.16129399  0.53644888  0.32114998    -0.10300
C1422       C  0.18540520  0.54942492  0.31997073     0.09100
C1423       C  0.19773719  0.56469471  0.39034860     0.10100
S1424       S  0.14639968  0.53197416  0.39852510    -0.24600
H1425       H  0.13168578  0.52167524  0.34673495     0.20300
S1426       S  0.20090862  0.55805140  0.28994491    -0.30300
H1427       H  0.21565346  0.56782333  0.34192728     0.10700
C1428       C  0.21917905  0.55361445  0.40299122     0.03900
C1429       C  0.22908393  0.56553827  0.42535935    -0.12600
C1430       C  0.21827491  0.58864805  0.43502295    -0.08300
C1431       C  0.19680062  0.59970333  0.42201718     0.07300
C1432       C  0.18690561  0.58766324  0.39988821    -0.13400
S1433       S  0.23363747  0.52416583  0.39080266    -0.30300
H1434       H  0.24553645  0.55702643  0.43516078     0.11600
S1435       S  0.18042269  0.62854385  0.43300458    -0.27400
H1436       H  0.17036709  0.59611954  0.39011953     0.08800
H1437       H  0.17784943  0.56562033  0.27757722     0.27200
H1438       H  0.25459258  0.52355329  0.40817100     0.22000
H1439       H  0.18069437  0.62134619  0.45928736     0.27300
H1440       H  0.16921586  0.52919236  0.41307275     0.16200
C1441       C  0.30470856  0.55018270  0.59427367    -0.11100
C1442       C  0.30073632  0.56233328  0.61823052     0.15400
C1443       C  0.28751957  0.58625492  0.61914069     0.02300
C1444       C  0.27893910  0.59767287  0.59611342    -0.15500
C1445       C  0.28285298  0.58558546  0.57202151    -0.10300
C1446       C  0.29618868  0.56162324  0.57119938     0.09100
C1447       C  0.31267293  0.55080500  0.64157909     0.10100
S1448       S  0.28107333  0.60318782  0.64903110    -0.24600
H1449       H  0.26871760  0.61600561  0.59709617     0.20300
S1450       S  0.30451030  0.54552127  0.54137924    -0.30300
H1451       H  0.31534907  0.53207889  0.59349151     0.10700
C1452       C  0.30174878  0.52920588  0.65420288     0.03900
C1453       C  0.31421611  0.51867851  0.67598428    -0.12600
C1454       C  0.33738244  0.52943300  0.68540159    -0.08300
C1455       C  0.34755947  0.55184945  0.67324637     0.07300
C1456       C  0.33536219  0.56196120  0.65131113    -0.13400
S1457       S  0.27185072  0.51527549  0.64267047    -0.30300
H1458       H  0.30620836  0.50169164  0.68535290     0.11600
S1459       S  0.37530287  0.56925190  0.68535502    -0.27400
H1460       H  0.34342459  0.57893334  0.64190318     0.08800
H1461       H  0.31152217  0.56847090  0.52838203     0.27200
H1462       H  0.26804857  0.49828402  0.66364149     0.22000
H1463       H  0.36876360  0.56606879  0.71159803     0.27300
H1464       H  0.27991104  0.58105558  0.66488007     0.16200
loop_ 
_geom_bond_atom_site_label_1 
_geom_bond_atom_site_label_2 
_geom_bond_distance 
_geom_bond_site_symmetry_2 
_ccdc_geom_bond_type 
O1            C4   1.267       .  A
O1           Cd6   2.477       .  S
C2           O11   1.264       .  A
C2            O7   1.267       .  A
C2         C1445   1.482       .  S
O3            C9   1.266       .  A
O3           Cd6   2.467       .  S
C4           O12   1.265       .  A
C4         C1430   1.483       .  S
C5           O10   1.266       .  A
C5            O8   1.266       .  A
C5         C1397   1.481       .  S
Cd6          O13   2.438       .  S
Cd6          O12   2.454       .  S
Cd6          O11   2.453       .  S
Cd6           O7   2.479       .  S
Cd6          O10   2.455       .  S
Cd6           O8   2.441       .  S
C9           O13   1.264       .  A
C9         C1373   1.481       .  S
O14          C17   1.266       .  A
O14         Cd19   2.483       .  S
C15          O24   1.264       .  A
C15          O20   1.265       .  A
C15        C1286   1.484       .  S
O16          C22   1.266       .  A
O16         Cd19   2.457       .  S
C17          O25   1.265       .  A
C17        C1349   1.483       .  S
C18          O23   1.265       .  A
C18          O21   1.264       .  A
C18        C1325   1.484       .  S
Cd19         O26   2.473       .  S
Cd19         O25   2.455       .  S
Cd19         O24   2.454       .  S
Cd19         O20   2.477       .  S
Cd19         O23   2.480       .  S
Cd19         O21   2.443       .  S
C22          O26   1.266       .  A
C22        C1301   1.480       .  S
O27          C30   1.268       .  A
O27         Cd32   2.480       .  S
C28          O37   1.263       .  A
C28          O33   1.264   1_455  A
C28        C1262   1.484       .  S
O29          C35   1.266       .  A
O29         Cd32   2.488   1_455  S
C30          O38   1.266       .  A
C30        C1238   1.489       .  S
C31          O36   1.265       .  A
C31          O34   1.263       .  A
C31        C1334   1.483       .  S
Cd32         O39   2.436   1_655  S
Cd32         O38   2.461       .  S
Cd32         O37   2.464   1_655  S
Cd32         O33   2.480       .  S
Cd32         O36   2.493       .  S
Cd32         O34   2.446       .  S
C35          O39   1.264       .  A
C35        C1406   1.486       .  S
O40          C43   1.268       .  A
O40         Cd45   2.469       .  S
C41          O50   1.264       .  A
C41          O46   1.266       .  A
C41        C1205   1.481       .  S
O42          C48   1.268       .  A
O42         Cd45   2.483       .  S
C43          O51   1.266       .  A
C43        C1133   1.480       .  S
C44          O49   1.267       .  A
C44          O47   1.263       .  A
C44        C1157   1.483       .  S
Cd45         O52   2.435       .  S
Cd45         O51   2.451       .  S
Cd45         O50   2.458       .  S
Cd45         O46   2.473       .  S
Cd45         O49   2.480       .  S
Cd45         O47   2.455       .  S
C48          O52   1.264       .  A
C48        C1181   1.475       .  S
O53          C56   1.268       .  A
O53         Cd58   2.473       .  S
C54          O63   1.263       .  A
C54          O59   1.268       .  A
C54        C1118   1.485       .  S
O55          C61   1.265       .  A
O55         Cd58   2.463   1_545  S
C56          O64   1.263       .  A
C56        C1277   1.480       .  S
C57          O62   1.266       .  A
C57          O60   1.265       .  A
C57        C1190   1.470       .  S
Cd58         O65   2.455   1_565  S
Cd58         O64   2.441       .  S
Cd58         O63   2.447   1_565  S
Cd58         O59   2.484   1_565  S
Cd58         O62   2.453       .  S
Cd58         O60   2.450       .  S
C61          O65   1.263       .  A
C61        C1094   1.472       .  S
O66          C69   1.266       .  A
O66         Cd71   2.495       .  S
C67          O76   1.266       .  A
C67          O72   1.266       .  A
C67        C1142   1.493       .  S
O68          C74   1.267       .  A
O68         Cd71   2.486   1_556  S
C69          O77   1.264       .  A
C69        C1046   1.489       .  S
C70          O75   1.265       .  A
C70          O73   1.265       .  A
C70        C1013   1.480       .  S
Cd71         O78   2.451   1_554  S
Cd71         O77   2.456       .  S
Cd71         O76   2.465   1_554  S
Cd71         O72   2.481   1_554  S
Cd71         O75   2.479       .  S
Cd71         O73   2.476       .  S
C74          O78   1.263       .  A
C74        C1070   1.487       .  S
O79          C82   1.266       .  A
O79         Cd84   2.469       .  S
C80          O89   1.266       .  A
C80          O85   1.266       .  A
C80        C1229   1.491       .  S
O81          C87   1.266       .  A
O81         Cd84   2.476       .  S
C82          O90   1.264       .  A
C82         C989   1.480       .  S
C83          O88   1.267       .  A
C83          O86   1.264       .  A
C83        C1061   1.489       .  S
Cd84         O91   2.461       .  S
Cd84         O90   2.453       .  S
Cd84         O89   2.454       .  S
Cd84         O85   2.479       .  S
Cd84         O88   2.470       .  S
Cd84         O86   2.460       .  S
C87          O91   1.264       .  A
C87         C965   1.482       .  S
O92          C95   1.267       .  A
O92         Cd97   2.483       .  S
C93         O102   1.265       .  A
C93          O98   1.266       .  A
C93         C941   1.483       .  S
O94         C100   1.264       .  A
O94         Cd97   2.504       .  S
C95         O103   1.265       .  A
C95         C917   1.482       .  S
C96         O101   1.266       .  A
C96          O99   1.264       .  A
C96         C902   1.480       .  S
Cd97        O104   2.461       .  S
Cd97        O103   2.447       .  S
Cd97        O102   2.449       .  S
Cd97         O98   2.480       .  S
Cd97        O101   2.489       .  S
Cd97         O99   2.458       .  S
C100        O104   1.262       .  A
C100       C1022   1.480       .  S
O105        C108   1.267       .  A
O105       Cd110   2.478       .  S
C106        O115   1.263       .  A
C106        O111   1.265       .  A
C106        C950   1.482       .  S
O107        C113   1.264       .  A
O107       Cd110   2.474       .  S
C108        O116   1.265       .  A
C108        C830   1.481       .  S
C109        O114   1.265       .  A
C109        O112   1.265       .  A
C109        C845   1.479       .  S
Cd110       O117   2.453       .  S
Cd110       O116   2.439       .  S
Cd110       O115   2.453       .  S
Cd110       O111   2.480       .  S
Cd110       O114   2.465       .  S
Cd110       O112   2.461       .  S
C113        O117   1.265       .  A
C113        C878   1.487       .  S
O118        C121   1.266       .  A
O118       Cd123   2.489       .  S
C119        O128   1.264       .  A
C119        O124   1.267       .  A
C119        C797   1.479       .  S
O120        C126   1.266       .  A
O120       Cd123   2.489       .  S
C121        O129   1.263       .  A
C121        C821   1.485       .  S
C122        O127   1.266       .  A
C122        O125   1.265       .  A
C122        C773   1.485       .  S
Cd123       O130   2.455       .  S
Cd123       O129   2.443       .  S
Cd123       O128   2.447   1_545  S
Cd123       O124   2.468   1_545  S
Cd123       O127   2.454   1_545  S
Cd123       O125   2.478   1_545  S
C126        O130   1.262       .  A
C126        C758   1.492       .  S
O131        C134   1.266       .  A
O131       Cd136   2.459       .  S
C132        O141   1.264       .  A
C132        O137   1.265       .  A
C132        C806   1.480       .  S
O133        C139   1.265       .  A
O133       Cd136   2.450       .  S
C134        O142   1.266       .  A
C134        C926   1.481       .  S
C135        O140   1.266       .  A
C135        O138   1.263       .  A
C135       C1310   1.480       .  S
Cd136       O143   2.460       .  S
Cd136       O142   2.457       .  S
Cd136       O141   2.455       .  S
Cd136       O137   2.471       .  S
Cd136       O140   2.475       .  S
Cd136       O138   2.441       .  S
C139        O143   1.264       .  A
C139       C1382   1.484       .  S
O144        C147   1.267       .  A
O144       Cd149   2.500   1_554  S
C145        O154   1.265       .  A
C145        O150   1.266       .  A
C145       C1109   1.486       .  S
O146        C152   1.265       .  A
O146       Cd149   2.472   1_554  S
C147        O155   1.263       .  A
C147        C710   1.486       .  S
C148        O153   1.265       .  A
C148        O151   1.265       .  A
C148        C725   1.481       .  S
Cd149       O156   2.456   1_556  S
Cd149       O155   2.448   1_556  S
Cd149       O154   2.460       .  S
Cd149       O150   2.482       .  S
Cd149       O153   2.483       .  S
Cd149       O151   2.474       .  S
C152        O156   1.264       .  A
C152        C869   1.483       .  S
O157        C160   1.269       .  A
O157       Cd162   2.472       .  S
C158        O167   1.263       .  A
C158        O163   1.267       .  A
C158        C998   1.484       .  S
O159        C165   1.266       .  A
O159       Cd162   2.491   1_655  S
C160        O168   1.266       .  A
C160        C686   1.485       .  S
C161        O166   1.267       .  A
C161        O164   1.263       .  A
C161        C653   1.484       .  S
Cd162       O169   2.466   1_455  S
Cd162       O168   2.448       .  S
Cd162       O167   2.443   1_455  S
Cd162       O163   2.488   1_455  S
Cd162       O166   2.488       .  S
Cd162       O164   2.442       .  S
C165        O169   1.264       .  A
C165        C734   1.480       .  S
O170        C173   1.266       .  A
O170       Cd175   2.471       .  S
C171        O180   1.265       .  A
C171        O176   1.266       .  A
C171        C605   1.482       .  S
O172        C178   1.267       .  A
O172       Cd175   2.479   1_554  S
C173        O181   1.264       .  A
C173       C1214   1.478       .  S
C174        O179   1.267       .  A
C174        O177   1.264       .  A
C174        C629   1.486       .  S
Cd175       O182   2.447   1_556  S
Cd175       O181   2.452       .  S
Cd175       O180   2.450   1_556  S
Cd175       O176   2.470   1_556  S
Cd175       O179   2.488       .  S
Cd175       O177   2.455       .  S
C178        O182   1.264       .  A
C178        C782   1.481       .  S
O183        C186   1.268       .  A
O183       Cd188   2.477       .  S
C184        O193   1.264       .  A
C184        O189   1.267       .  A
C184       C1253   1.482       .  S
O185        C191   1.265       .  A
O185       Cd188   2.499       .  S
C186        O194   1.265       .  A
C186        C677   1.480       .  S
C187        O192   1.267       .  A
C187        O190   1.263       .  A
C187        C638   1.488       .  S
Cd188       O195   2.467       .  S
Cd188       O194   2.455       .  S
Cd188       O193   2.448   1_545  S
Cd188       O189   2.491   1_545  S
Cd188       O192   2.485   1_545  S
Cd188       O190   2.455   1_545  S
C191        O195   1.264       .  A
C191        C581   1.482       .  S
O196        C199   1.267       .  A
O196       Cd201   2.482       .  S
C197        O206   1.264       .  A
C197        O202   1.267       .  A
C197       C1358   1.481       .  S
O198        C204   1.267       .  A
O198       Cd201   2.463   1_565  S
C199        O207   1.265       .  A
C199        C701   1.485       .  S
C200        O205   1.265       .  A
C200        O203   1.266       .  A
C200        C533   1.486       .  S
Cd201       O208   2.430   1_545  S
Cd201       O207   2.458       .  S
Cd201       O206   2.467   1_545  S
Cd201       O202   2.473   1_545  S
Cd201       O205   2.469       .  S
Cd201       O203   2.454       .  S
C204        O208   1.264       .  A
C204        C557   1.476       .  S
O209        C212   1.268       .  A
O209       Cd214   2.487   1_655  S
C210        O219   1.264       .  A
C210        O215   1.268       .  A
C210        C614   1.483       .  S
O211        C217   1.267       .  A
O211       Cd214   2.469   1_655  S
C212        O220   1.264       .  A
C212       C1037   1.486       .  S
C213        O218   1.266       .  A
C213        O216   1.263       .  A
C213        C509   1.484       .  S
Cd214       O221   2.439   1_455  S
Cd214       O220   2.467   1_455  S
Cd214       O219   2.450       .  S
Cd214       O215   2.486       .  S
Cd214       O218   2.470       .  S
Cd214       O216   2.453       .  S
C217        O221   1.264       .  A
C217        C566   1.478       .  S
O222        C225   1.266       .  A
O222       Cd227   2.482       .  S
C223        O232   1.265       .  A
C223        O228   1.267       .  A
C223       C1421   1.480       .  S
O224        C230   1.268       .  A
O224       Cd227   2.474       .  S
C225        O233   1.264       .  A
C225        C461   1.487       .  S
C226        O231   1.267       .  A
C226        O229   1.264       .  A
C226        C485   1.484       .  S
Cd227       O234   2.447       .  S
Cd227       O233   2.467       .  S
Cd227       O232   2.442       .  S
Cd227       O228   2.472       .  S
Cd227       O231   2.494       .  S
Cd227       O229   2.450       .  S
C230        O234   1.264       .  A
C230        C518   1.481       .  S
O235        C238   1.268       .  A
O235       Cd240   2.484       .  S
C236        O245   1.264       .  A
C236        O241   1.266       .  A
C236        C446   1.485       .  S
O237        C243   1.265       .  A
O237       Cd240   2.483       .  S
C238        O246   1.265       .  A
C238       C1454   1.481       .  S
C239        O244   1.267       .  A
C239        O242   1.263       .  A
C239       C1166   1.483       .  S
Cd240       O247   2.463       .  S
Cd240       O246   2.443       .  S
Cd240       O245   2.446       .  S
Cd240       O241   2.492       .  S
Cd240       O244   2.488       .  S
Cd240       O242   2.442       .  S
C243        O247   1.265       .  A
C243        C413   1.480       .  S
O248        C251   1.267       .  A
O248       Cd253   2.489       .  S
C249        O258   1.263       .  A
C249        O254   1.268       .  A
C249        C437   1.485       .  S
O250        C256   1.267       .  A
O250       Cd253   2.478       .  S
C251        O259   1.265       .  A
C251        C470   1.489       .  S
C252        O257   1.265       .  A
C252        O255   1.265       .  A
C252        C662   1.481       .  S
Cd253       O260   2.451       .  S
Cd253       O259   2.468       .  S
Cd253       O258   2.452   1_554  S
Cd253       O254   2.500   1_554  S
Cd253       O257   2.472   1_554  S
Cd253       O255   2.460   1_554  S
C256        O260   1.265       .  A
C256        C854   1.484       .  S
O261        C264   1.267       .  A
O261       Cd266   2.475       .  S
C262        O271   1.263       .  A
C262        O267   1.267       .  A
C262        C365   1.484       .  S
O263        C269   1.266       .  A
O263       Cd266   2.490       .  S
C264        O272   1.265       .  A
C264        C398   1.482       .  S
C265        O270   1.267       .  A
C265        O268   1.263       .  A
C265        C749   1.485       .  S
Cd266       O273   2.457       .  S
Cd266       O272   2.446       .  S
Cd266       O271   2.446       .  S
Cd266       O267   2.491       .  S
Cd266       O270   2.488       .  S
Cd266       O268   2.456       .  S
C269        O273   1.265       .  A
C269        C590   1.480       .  S
O274        C277   1.267       .  A
O274       Cd279   2.476   1_455  S
C275        O284   1.264       .  A
C275        O280   1.267       .  A
C275        C350   1.480       .  S
O276        C282   1.267       .  A
O276       Cd279   2.475   1_455  S
C277        O285   1.265       .  A
C277        C389   1.479       .  S
C278        O283   1.267       .  A
C278        O281   1.266       .  A
C278        C542   1.490       .  S
Cd279       O286   2.461   1_655  S
Cd279       O285   2.453   1_655  S
Cd279       O284   2.445       .  S
Cd279       O280   2.481       .  S
Cd279       O283   2.480       .  S
Cd279       O281   2.454       .  S
C282        O286   1.263       .  A
C282        C494   1.484       .  S
O287        C290   1.267       .  A
O287       Cd292   2.477       .  S
C288        O297   1.263       .  A
C288        O293   1.265       .  A
C288        C341   1.481       .  S
O289        C295   1.265       .  A
O289       Cd292   2.486       .  S
C290        O298   1.266       .  A
C290        C317   1.487       .  S
C291        O296   1.265       .  A
C291        O294   1.265       .  A
C291        C974   1.488       .  S
Cd292       O299   2.471       .  S
Cd292       O298   2.465       .  S
Cd292       O297   2.457       .  S
Cd292       O293   2.487       .  S
Cd292       O296   2.480       .  S
Cd292       O294   2.477       .  S
C295        O299   1.264       .  A
C295        C893   1.482       .  S
O300        C303   1.267       .  A
O300       Cd305   2.468       .  S
C301        O310   1.264       .  A
C301        O306   1.268       .  A
C301        C326   1.480       .  S
O302        C308   1.265       .  A
O302       Cd305   2.494       .  S
C303        O311   1.265       .  A
C303        C374   1.489       .  S
C304        O309   1.266       .  A
C304        O307   1.263       .  A
C304       C1085   1.470       .  S
Cd305       O312   2.451       .  S
Cd305       O311   2.457       .  S
Cd305       O310   2.441       .  S
Cd305       O306   2.497       .  S
Cd305       O309   2.479       .  S
Cd305       O307   2.438       .  S
C308        O312   1.263       .  A
C308        C422   1.475       .  S
C313        C314   1.402       .  A
C313        C318   1.399       .  A
C313        H323   1.084       .  S
C314        C319   1.483       .  S
C314        C315   1.412       .  A
C315        C316   1.402       .  A
C315        S320   1.804       .  S
C316        C317   1.408       .  A
C316        H321   1.084       .  S
C317        C318   1.417       .  A
C318        S322   1.802       .  S
C319        C324   1.409       .  A
C319        C328   1.404       .  A
S320        H336   1.406       .  S
S322        H333   1.408       .  S
C324        C325   1.402       .  A
C324        S329   1.807       .  S
C325        C326   1.405       .  A
C325        H330   1.083       .  S
C326        C327   1.414       .  A
C327        C328   1.402       .  A
C327        S331   1.802       .  S
C328        H332   1.084       .  S
S329        H334   1.407       .  S
S331        H335   1.407       .  S
C337        C338   1.401       .  A
C337        C342   1.397       .  A
C337        H347   1.084       .  S
C338        C343   1.480       .  S
C338        C339   1.412       .  A
C339        C340   1.402       .  A
C339        S344   1.805       .  S
C340        C341   1.406       .  A
C340        H345   1.084       .  S
C341        C342   1.415       .  A
C342        S346   1.802       .  S
C343        C348   1.409       .  A
C343        C352   1.402       .  A
S344        H360   1.405       .  S
S346        H357   1.407       .  S
C348        C349   1.402       .  A
C348        S353   1.807       .  S
C349        C350   1.405       .  A
C349        H354   1.083       .  S
C350        C351   1.415       .  A
C351        C352   1.401       .  A
C351        S355   1.802       .  S
C352        H356   1.084       .  S
S353        H358   1.407       .  S
S355        H359   1.407       .  S
C361        C362   1.399       .  A
C361        C366   1.398       .  A
C361        H371   1.084       .  S
C362        C367   1.478       .  S
C362        C363   1.413       .  A
C363        C364   1.402       .  A
C363        S368   1.806       .  S
C364        C365   1.406       .  A
C364        H369   1.084       .  S
C365        C366   1.417       .  A
C366        S370   1.803       .  S
C367        C372   1.407       .  A
C367        C376   1.399       .  A
S368        H384   1.404       .  S
S370        H381   1.408       .  S
C372        C373   1.403       .  A
C372        S377   1.807       .  S
C373        C374   1.410       .  A
C373        H378   1.082       .  S
C374        C375   1.419       .  A
C375        C376   1.400       .  A
C375        S379   1.800       .  S
C376        H380   1.084       .  S
S377        H382   1.407       .  S
S379        H383   1.408       .  S
C385        C386   1.401       .  A
C385        C390   1.398       .  A
C385        H395   1.084       .  S
C386        C391   1.479       .  S
C386        C387   1.411       .  A
C387        C388   1.401       .  A
C387        S392   1.803       .  S
C388        C389   1.405       .  A
C388        H393   1.084       .  S
C389        C390   1.415       .  A
C390        S394   1.803       .  S
C391        C396   1.408       .  A
C391        C400   1.401       .  A
S392        H408   1.405       .  S
S394        H405   1.407       .  S
C396        C397   1.402       .  A
C396        S401   1.807       .  S
C397        C398   1.406       .  A
C397        H402   1.083       .  S
C398        C399   1.416       .  A
C399        C400   1.401       .  A
C399        S403   1.802       .  S
C400        H404   1.084       .  S
S401        H406   1.407       .  S
S403        H407   1.408       .  S
C409        C410   1.404       .  A
C409        C414   1.402       .  A
C409        H419   1.084       .  S
C410        C415   1.485       .  S
C410        C411   1.413       .  A
C411        C412   1.398       .  A
C411        S416   1.805       .  S
C412        C413   1.403       .  A
C412        H417   1.084       .  S
C413        C414   1.415       .  A
C414        S418   1.802       .  S
C415        C420   1.412       .  A
C415        C424   1.403       .  A
S416        H432   1.406       .  S
S418        H429   1.407       .  S
C420        C421   1.407       .  A
C420        S425   1.806       .  S
C421        C422   1.404       .  A
C421        H426   1.083       .  S
C422        C423   1.412       .  A
C423        C424   1.397       .  A
C423        S427   1.804       .  S
C424        H428   1.084       .  S
S425        H430   1.407       .  S
S427        H431   1.407       .  S
C433        C434   1.401       .  A
C433        C438   1.399       .  A
C433        H443   1.084       .  S
C434        C439   1.484       .  S
C434        C435   1.412       .  A
C435        C436   1.403       .  A
C435        S440   1.803       .  S
C436        C437   1.406       .  A
C436        H441   1.084       .  S
C437        C438   1.417       .  A
C438        S442   1.803       .  S
C439        C444   1.408       .  A
C439        C448   1.403       .  A
S440        H456   1.406       .  S
S442        H453   1.408       .  S
C444        C445   1.401       .  A
C444        S449   1.807       .  S
C445        C446   1.407       .  A
C445        H450   1.082       .  S
C446        C447   1.416       .  A
C447        C448   1.402       .  A
C447        S451   1.801       .  S
C448        H452   1.084       .  S
S449        H454   1.407       .  S
S451        H455   1.407       .  S
C457        C458   1.401       .  A
C457        C462   1.401       .  A
C457        H467   1.084       .  S
C458        C463   1.482       .  S
C458        C459   1.412       .  A
C459        C460   1.402       .  A
C459        S464   1.804       .  S
C460        C461   1.406       .  A
C460        H465   1.084       .  S
C461        C462   1.418       .  A
C462        S466   1.802       .  S
C463        C468   1.408       .  A
C463        C472   1.401       .  A
S464        H480   1.404       .  S
S466        H477   1.408       .  S
C468        C469   1.405       .  A
C468        S473   1.807       .  S
C469        C470   1.408       .  A
C469        H474   1.083       .  S
C470        C471   1.418       .  A
C471        C472   1.402       .  A
C471        S475   1.801       .  S
C472        H476   1.084       .  S
S473        H478   1.407       .  S
S475        H479   1.408       .  S
C481        C482   1.400       .  A
C481        C486   1.398       .  A
C481        H491   1.084       .  S
C482        C487   1.482       .  S
C482        C483   1.414       .  A
C483        C484   1.402       .  A
C483        S488   1.805       .  S
C484        C485   1.406       .  A
C484        H489   1.084       .  S
C485        C486   1.417       .  A
C486        S490   1.803       .  S
C487        C492   1.409       .  A
C487        C496   1.401       .  A
S488        H504   1.405       .  S
S490        H501   1.408       .  S
C492        C493   1.403       .  A
C492        S497   1.806       .  S
C493        C494   1.406       .  A
C493        H498   1.083       .  S
C494        C495   1.418       .  A
C495        C496   1.400       .  A
C495        S499   1.803       .  S
C496        H500   1.084       .  S
S497        H502   1.407       .  S
S499        H503   1.407   1_455  S
C505        C506   1.401       .  A
C505        C510   1.398       .  A
C505        H515   1.084       .  S
C506        C511   1.479       .  S
C506        C507   1.411       .  A
C507        C508   1.399       .  A
C507        S512   1.804       .  S
C508        C509   1.406       .  A
C508        H513   1.084       .  S
C509        C510   1.418       .  A
C510        S514   1.802       .  S
C511        C516   1.409       .  A
C511        C520   1.401       .  A
S512        H528   1.406       .  S
S514        H525   1.408       .  S
C516        C517   1.403       .  A
C516        S521   1.807       .  S
C517        C518   1.405       .  A
C517        H522   1.083       .  S
C518        C519   1.417       .  A
C519        C520   1.399       .  A
C519        S523   1.803       .  S
C520        H524   1.084       .  S
S521        H526   1.407       .  S
S523        H527   1.407       .  S
C529        C530   1.402       .  A
C529        C534   1.400       .  A
C529        H539   1.084       .  S
C530        C535   1.482       .  S
C530        C531   1.411       .  A
C531        C532   1.399       .  A
C531        S536   1.804       .  S
C532        C533   1.407       .  A
C532        H537   1.084       .  S
C533        C534   1.418       .  A
C534        S538   1.801       .  S
C535        C540   1.408       .  A
C535        C544   1.401       .  A
S536        H552   1.405       .  S
S538        H549   1.408       .  S
C540        C541   1.402       .  A
C540        S545   1.808       .  S
C541        C542   1.408       .  A
C541        H546   1.082       .  S
C542        C543   1.419       .  A
C543        C544   1.402       .  A
C543        S547   1.800       .  S
C544        H548   1.084       .  S
S545        H550   1.406       .  S
S547        H551   1.408       .  S
C553        C554   1.400       .  A
C553        C558   1.396       .  A
C553        H563   1.084       .  S
C554        C559   1.475       .  S
C554        C555   1.410       .  A
C555        C556   1.398       .  A
C555        S560   1.803       .  S
C556        C557   1.405       .  A
C556        H561   1.084       .  S
C557        C558   1.416       .  A
C558        S562   1.804       .  S
C559        C564   1.408       .  A
C559        C568   1.400       .  A
S560        H576   1.406       .  S
S562        H573   1.408       .  S
C564        C565   1.401       .  A
C564        S569   1.807       .  S
C565        C566   1.405       .  A
C565        H570   1.083       .  S
C566        C567   1.415       .  A
C567        C568   1.401       .  A
C567        S571   1.809   1_655  S
C568        H572   1.083       .  S
S569        H574   1.407       .  S
S571        H575   1.407       .  S
C577        C578   1.403       .  A
C577        C582   1.397       .  A
C577        H587   1.084       .  S
C578        C583   1.489       .  S
C578        C579   1.415       .  A
C579        C580   1.405       .  A
C579        S584   1.804   1_545  S
C580        C581   1.406       .  A
C580        H585   1.084   1_545  S
C581        C582   1.414       .  A
C582        S586   1.803       .  S
C583        C588   1.412       .  A
C583        C592   1.405       .  A
S584        H600   1.406   1_565  S
S586        H597   1.407       .  S
C588        C589   1.402       .  A
C588        S593   1.808       .  S
C589        C590   1.403       .  A
C589        H594   1.083       .  S
C590        C591   1.414       .  A
C591        C592   1.403       .  A
C591        S595   1.802       .  S
C592        H596   1.084       .  S
S593        H598   1.407       .  S
S595        H599   1.407       .  S
C601        C602   1.400       .  A
C601        C606   1.399       .  A
C601        H611   1.084       .  S
C602        C607   1.478       .  S
C602        C603   1.412       .  A
C603        C604   1.401       .  A
C603        S608   1.805       .  S
C604        C605   1.406       .  A
C604        H609   1.084       .  S
C605        C606   1.416       .  A
C606        S610   1.803       .  S
C607        C612   1.407       .  A
C607        C616   1.401       .  A
S608        H624   1.404       .  S
S610        H621   1.408   1_554  S
C612        C613   1.402       .  A
C612        S617   1.807       .  S
C613        C614   1.407       .  A
C613        H618   1.083       .  S
C614        C615   1.416       .  A
C615        C616   1.401       .  A
C615        S619   1.802       .  S
C616        H620   1.084       .  S
S617        H622   1.407       .  S
S619        H623   1.407       .  S
C625        C626   1.401       .  A
C625        C630   1.400       .  A
C625        H635   1.084       .  S
C626        C631   1.483       .  S
C626        C627   1.412       .  A
C627        C628   1.402       .  A
C627        S632   1.803       .  S
C628        C629   1.406       .  A
C628        H633   1.084       .  S
C629        C630   1.418       .  A
C630        S634   1.803       .  S
C631        C636   1.408       .  A
C631        C640   1.401       .  A
S632        H648   1.406   1_565  S
S634        H645   1.408       .  S
C636        C637   1.404       .  A
C636        S641   1.806       .  S
C637        C638   1.407       .  A
C637        H642   1.082       .  S
C638        C639   1.420       .  A
C639        C640   1.400       .  A
C639        S643   1.803       .  S
C640        H644   1.084       .  S
S641        H646   1.407       .  S
S643        H647   1.408   1_565  S
C649        C650   1.403       .  A
C649        C654   1.402       .  A
C649        H659   1.084       .  S
C650        C655   1.480       .  S
C650        C651   1.411       .  A
C651        C652   1.397       .  A
C651        S656   1.805       .  S
C652        C653   1.406       .  A
C652        H657   1.084       .  S
C653        C654   1.416       .  A
C654        S658   1.801       .  S
C655        C660   1.410       .  A
C655        C664   1.401       .  A
S656        H672   1.406       .  S
S658        H669   1.408       .  S
C660        C661   1.403       .  A
C660        S665   1.807       .  S
C661        C662   1.406       .  A
C661        H666   1.083       .  S
C662        C663   1.415       .  A
C663        C664   1.400       .  A
C663        S667   1.802       .  S
C664        H668   1.084       .  S
S665        H670   1.407       .  S
S667        H671   1.407       .  S
C673        C674   1.402       .  A
C673        C678   1.400       .  A
C673        H683   1.084       .  S
C674        C679   1.480       .  S
C674        C675   1.413       .  A
C675        C676   1.401       .  A
C675        S680   1.806       .  S
C676        C677   1.405       .  A
C676        H681   1.084       .  S
C677        C678   1.414       .  A
C678        S682   1.803       .  S
C679        C684   1.408       .  A
C679        C688   1.400       .  A
S680        H696   1.403       .  S
S682        H693   1.407       .  S
C684        C685   1.405       .  A
C684        S689   1.806       .  S
C685        C686   1.407       .  A
C685        H690   1.083       .  S
C686        C687   1.418       .  A
C687        C688   1.400       .  A
C687        S691   1.803       .  S
C688        H692   1.084       .  S
S689        H694   1.407   1_455  S
S691        H695   1.408       .  S
C697        C698   1.402       .  A
C697        C702   1.402       .  A
C697        H707   1.084       .  S
C698        C703   1.480       .  S
C698        C699   1.411       .  A
C699        C700   1.399       .  A
C699        S704   1.805       .  S
C700        C701   1.406       .  A
C700        H705   1.084       .  S
C701        C702   1.417       .  A
C702        S706   1.802   1_545  S
C703        C708   1.409       .  A
C703        C712   1.399       .  A
S704        H720   1.404       .  S
S706        H717   1.408       .  S
C708        C709   1.407       .  A
C708        S713   1.805       .  S
C709        C710   1.407       .  A
C709        H714   1.083       .  S
C710        C711   1.418       .  A
C711        C712   1.398       .  A
C711        S715   1.803       .  S
C712        H716   1.084       .  S
S713        H718   1.407       .  S
S715        H719   1.408       .  S
C721        C722   1.404       .  A
C721        C726   1.402       .  A
C721        H731   1.084       .  S
C722        C727   1.488       .  S
C722        C723   1.413       .  A
C723        C724   1.400       .  A
C723        S728   1.804       .  S
C724        C725   1.404       .  A
C724        H729   1.084       .  S
C725        C726   1.415       .  A
C726        S730   1.802   1_556  S
C727        C732   1.412       .  A
C727        C736   1.404       .  A
S728        H744   1.406       .  S
S730        H741   1.407       .  S
C732        C733   1.406       .  A
C732        S737   1.806       .  S
C733        C734   1.405       .  A
C733        H738   1.083       .  S
C734        C735   1.413       .  A
C735        C736   1.399       .  A
C735        S739   1.803       .  S
C736        H740   1.084       .  S
S737        H742   1.407       .  S
S739        H743   1.407       .  S
C745        C746   1.401       .  A
C745        C750   1.399       .  A
C745        H755   1.084       .  S
C746        C751   1.481       .  S
C746        C747   1.412       .  A
C747        C748   1.401       .  A
C747        S752   1.804       .  S
C748        C749   1.406       .  A
C748        H753   1.084       .  S
C749        C750   1.418       .  A
C750        S754   1.803       .  S
C751        C756   1.406       .  A
C751        C760   1.399       .  A
S752        H768   1.405       .  S
S754        H765   1.407       .  S
C756        C757   1.404       .  A
C756        S761   1.806       .  S
C757        C758   1.409       .  A
C757        H762   1.082       .  S
C758        C759   1.422       .  A
C759        C760   1.403       .  A
C759        S763   1.810       .  S
C760        H764   1.083       .  S
S761        H766   1.407       .  S
S763        H767   1.407       .  S
C769        C770   1.401       .  A
C769        C774   1.400       .  A
C769        H779   1.084       .  S
C770        C775   1.477       .  S
C770        C771   1.411       .  A
C771        C772   1.398       .  A
C771        S776   1.807       .  S
C772        C773   1.406       .  A
C772        H777   1.084       .  S
C773        C774   1.418       .  A
C774        S778   1.801       .  S
C775        C780   1.407       .  A
C775        C784   1.400       .  A
S776        H792   1.403       .  S
S778        H789   1.406       .  S
C780        C781   1.404       .  A
C780        S785   1.805       .  S
C781        C782   1.406       .  A
C781        H786   1.083       .  S
C782        C783   1.417       .  A
C783        C784   1.398       .  A
C783        S787   1.803       .  S
C784        H788   1.084       .  S
S785        H790   1.407       .  S
S787        H791   1.407       .  S
C793        C794   1.401       .  A
C793        C798   1.398       .  A
C793        H803   1.084       .  S
C794        C799   1.477       .  S
C794        C795   1.411       .  A
C795        C796   1.398       .  A
C795        S800   1.804       .  S
C796        C797   1.405       .  A
C796        H801   1.084       .  S
C797        C798   1.416       .  A
C798        S802   1.802       .  S
C799        C804   1.408       .  A
C799        C808   1.400       .  A
S800        H816   1.406       .  S
S802        H813   1.407       .  S
C804        C805   1.402       .  A
C804        S809   1.807       .  S
C805        C806   1.406       .  A
C805        H810   1.083       .  S
C806        C807   1.415       .  A
C807        C808   1.398       .  A
C807        S811   1.802       .  S
C808        H812   1.084       .  S
S809        H814   1.407       .  S
S811        H815   1.407       .  S
C817        C818   1.401       .  A
C817        C822   1.397       .  A
C817        H827   1.084       .  S
C818        C823   1.481       .  S
C818        C819   1.413       .  A
C819        C820   1.402       .  A
C819        S824   1.804       .  S
C820        C821   1.407       .  A
C820        H825   1.084       .  S
C821        C822   1.417       .  A
C822        S826   1.802       .  S
C823        C828   1.410       .  A
C823        C832   1.402       .  A
S824        H840   1.406       .  S
S826        H837   1.408       .  S
C828        C829   1.400       .  A
C828        S833   1.808       .  S
C829        C830   1.405       .  A
C829        H834   1.083       .  S
C830        C831   1.416       .  A
C831        C832   1.401       .  A
C831        S835   1.801       .  S
C832        H836   1.084       .  S
S833        H838   1.407       .  S
S835        H839   1.407       .  S
C841        C842   1.401       .  A
C841        C846   1.399       .  A
C841        H851   1.084       .  S
C842        C847   1.477       .  S
C842        C843   1.413       .  A
C843        C844   1.400       .  A
C843        S848   1.806       .  S
C844        C845   1.405       .  A
C844        H849   1.084       .  S
C845        C846   1.415       .  A
C846        S850   1.803       .  S
C847        C852   1.407       .  A
C847        C856   1.399       .  A
S848        H864   1.402       .  S
S850        H861   1.407       .  S
C852        C853   1.405       .  A
C852        S857   1.806       .  S
C853        C854   1.408       .  A
C853        H858   1.083       .  S
C854        C855   1.417       .  A
C855        C856   1.398       .  A
C855        S859   1.802       .  S
C856        H860   1.084       .  S
S857        H862   1.407       .  S
S859        H863   1.408       .  S
C865        C866   1.400       .  A
C865        C870   1.400       .  A
C865        H875   1.084       .  S
C866        C871   1.476       .  S
C866        C867   1.410       .  A
C867        C868   1.398       .  A
C867        S872   1.804       .  S
C868        C869   1.407       .  A
C868        H873   1.084       .  S
C869        C870   1.418       .  A
C870        S874   1.801       .  S
C871        C876   1.406       .  A
C871        C880   1.399       .  A
S872        H888   1.405       .  S
S874        H885   1.407       .  S
C876        C877   1.401       .  A
C876        S881   1.807       .  S
C877        C878   1.408       .  A
C877        H882   1.082       .  S
C878        C879   1.420       .  A
C879        C880   1.400       .  A
C879        S883   1.801       .  S
C880        H884   1.084       .  S
S881        H886   1.407       .  S
S883        H887   1.408       .  S
C889        C890   1.404       .  A
C889        C894   1.402       .  A
C889        H899   1.084       .  S
C890        C895   1.487       .  S
C890        C891   1.413       .  A
C891        C892   1.400       .  A
C891        S896   1.804       .  S
C892        C893   1.404       .  A
C892        H897   1.084       .  S
C893        C894   1.416       .  A
C894        S898   1.802       .  S
C895        C900   1.412       .  A
C895        C904   1.403       .  A
S896        H912   1.407       .  S
S898        H909   1.405       .  S
C900        C901   1.406       .  A
C900        S905   1.806       .  S
C901        C902   1.405       .  A
C901        H906   1.083       .  S
C902        C903   1.414       .  A
C903        C904   1.398       .  A
C903        S907   1.803       .  S
C904        H908   1.084       .  S
S905        H910   1.407       .  S
S907        H911   1.407       .  S
C913        C914   1.402       .  A
C913        C918   1.397       .  A
C913        H923   1.084       .  S
C914        C919   1.482       .  S
C914        C915   1.412       .  A
C915        C916   1.402       .  A
C915        S920   1.804       .  S
C916        C917   1.406       .  A
C916        H921   1.084       .  S
C917        C918   1.416       .  A
C918        S922   1.803       .  S
C919        C924   1.410       .  A
C919        C928   1.402       .  A
S920        H936   1.406       .  S
S922        H933   1.407       .  S
C924        C925   1.402       .  A
C924        S929   1.807       .  S
C925        C926   1.405       .  A
C925        H930   1.083       .  S
C926        C927   1.416       .  A
C927        C928   1.400       .  A
C927        S931   1.802       .  S
C928        H932   1.084       .  S
S929        H934   1.407       .  S
S931        H935   1.408       .  S
C937        C938   1.402       .  A
C937        C942   1.401       .  A
C937        H947   1.084       .  S
C938        C943   1.478       .  S
C938        C939   1.411       .  A
C939        C940   1.397       .  A
C939        S944   1.805       .  S
C940        C941   1.405       .  A
C940        H945   1.084       .  S
C941        C942   1.417       .  A
C942        S946   1.801       .  S
C943        C948   1.409       .  A
C943        C952   1.399       .  A
S944        H960   1.405       .  S
S946        H957   1.407       .  S
C948        C949   1.404       .  A
C948        S953   1.807       .  S
C949        C950   1.407       .  A
C949        H954   1.083       .  S
C950        C951   1.417       .  A
C951        C952   1.397       .  A
C951        S955   1.802       .  S
C952        H956   1.084       .  S
S953        H958   1.407       .  S
S955        H959   1.408       .  S
C961        C962   1.401       .  A
C961        C966   1.399       .  A
C961        H971   1.084       .  S
C962        C967   1.481       .  S
C962        C963   1.412       .  A
C963        C964   1.401       .  A
C963        S968   1.805       .  S
C964        C965   1.406       .  A
C964        H969   1.084       .  S
C965        C966   1.415       .  A
C966        S970   1.802       .  S
C967        C972   1.408       .  A
C967        C976   1.401       .  A
S968        H984   1.405       .  S
S970        H981   1.408       .  S
C972        C973   1.403       .  A
C972        S977   1.807       .  S
C973        C974   1.408       .  A
C973        H978   1.082       .  S
C974        C975   1.418       .  A
C975        C976   1.401       .  A
C975        S979   1.801       .  S
C976        H980   1.084       .  S
S977        H982   1.406       .  S
S979        H983   1.408       .  S
C985        C986   1.402       .  A
C985        C990   1.401       .  A
C985        H995   1.084       .  S
C986        C991   1.479       .  S
C986        C987   1.411       .  A
C987        C988   1.397       .  A
C987        S992   1.804       .  S
C988        C989   1.404       .  A
C988        H993   1.084       .  S
C989        C990   1.416       .  A
C990        S994   1.802       .  S
C991        C996   1.409       .  A
C991       C1000   1.399       .  A
S992       H1008   1.406       .  S
S994       H1005   1.407       .  S
C996        C997   1.405       .  A
C996       S1001   1.806       .  S
C997        C998   1.407       .  A
C997       H1002   1.082       .  S
C998        C999   1.418       .  A
C999       C1000   1.396       .  A
C999       S1003   1.803       .  S
C1000      H1004   1.084       .  S
S1001      H1006   1.407       .  S
S1003      H1007   1.408   1_655  S
C1009      C1010   1.404       .  A
C1009      C1014   1.403       .  A
C1009      H1019   1.084       .  S
C1010      C1015   1.487       .  S
C1010      C1011   1.415       .  A
C1011      C1012   1.399       .  A
C1011      S1016   1.805       .  S
C1012      C1013   1.403       .  A
C1012      H1017   1.084       .  S
C1013      C1014   1.415       .  A
C1014      S1018   1.803       .  S
C1015      C1020   1.413       .  A
C1015      C1024   1.402       .  A
S1016      H1032   1.406       .  S
S1018      H1029   1.407       .  S
C1020      C1021   1.408       .  A
C1020      S1025   1.806       .  S
C1021      C1022   1.405       .  A
C1021      H1026   1.083       .  S
C1022      C1023   1.413       .  A
C1023      C1024   1.397       .  A
C1023      S1027   1.803       .  S
C1024      H1028   1.084       .  S
S1025      H1030   1.407       .  S
S1027      H1031   1.407       .  S
C1033      C1034   1.402       .  A
C1033      C1038   1.402       .  A
C1033      H1043   1.084       .  S
C1034      C1039   1.486       .  S
C1034      C1035   1.414       .  A
C1035      C1036   1.401       .  A
C1035      S1040   1.805       .  S
C1036      C1037   1.405       .  A
C1036      H1041   1.084       .  S
C1037      C1038   1.418       .  A
C1038      S1042   1.803       .  S
C1039      C1044   1.409       .  A
C1039      C1048   1.403       .  A
S1040      H1056   1.405       .  S
S1042      H1053   1.407       .  S
C1044      C1045   1.403       .  A
C1044      S1049   1.807       .  S
C1045      C1046   1.407       .  A
C1045      H1050   1.082       .  S
C1046      C1047   1.417       .  A
C1047      C1048   1.403       .  A
C1047      S1051   1.801       .  S
C1048      H1052   1.084       .  S
S1049      H1054   1.407       .  S
S1051      H1055   1.407   1_554  S
C1057      C1058   1.401       .  A
C1057      C1062   1.400       .  A
C1057      H1067   1.084       .  S
C1058      C1063   1.481       .  S
C1058      C1059   1.410       .  A
C1059      C1060   1.399       .  A
C1059      S1064   1.804       .  S
C1060      C1061   1.407       .  A
C1060      H1065   1.084       .  S
C1061      C1062   1.420       .  A
C1062      S1066   1.802       .  S
C1063      C1068   1.408       .  A
C1063      C1072   1.400       .  A
S1064      H1080   1.406       .  S
S1066      H1077   1.408       .  S
C1068      C1069   1.404       .  A
C1068      S1073   1.807       .  S
C1069      C1070   1.408       .  A
C1069      H1074   1.082       .  S
C1070      C1071   1.419       .  A
C1071      C1072   1.398       .  A
C1071      S1075   1.802       .  S
C1072      H1076   1.084       .  S
S1073      H1078   1.407       .  S
S1075      H1079   1.408       .  S
C1081      C1082   1.404       .  A
C1081      C1086   1.399       .  A
C1081      H1091   1.084       .  S
C1082      C1087   1.480       .  S
C1082      C1083   1.412       .  A
C1083      C1084   1.397       .  A
C1083      S1088   1.804       .  S
C1084      C1085   1.402       .  A
C1084      H1089   1.084       .  S
C1085      C1086   1.412       .  A
C1086      S1090   1.803       .  S
C1087      C1092   1.410       .  A
C1087      C1096   1.403       .  A
S1088      H1104   1.406       .  S
S1090      H1101   1.406       .  S
C1092      C1093   1.401       .  A
C1092      S1097   1.807       .  S
C1093      C1094   1.403       .  A
C1093      H1098   1.083       .  S
C1094      C1095   1.413       .  A
C1095      C1096   1.398       .  A
C1095      S1099   1.804       .  S
C1096      H1100   1.084       .  S
S1097      H1102   1.407       .  S
S1099      H1103   1.407       .  S
C1105      C1106   1.402       .  A
C1105      C1110   1.402       .  A
C1105      H1115   1.084       .  S
C1106      C1111   1.480       .  S
C1106      C1107   1.410       .  A
C1107      C1108   1.399       .  A
C1107      S1112   1.804       .  S
C1108      C1109   1.406       .  A
C1108      H1113   1.084       .  S
C1109      C1110   1.417       .  A
C1110      S1114   1.801       .  S
C1111      C1116   1.408       .  A
C1111      C1120   1.400       .  A
S1112      H1128   1.405       .  S
S1114      H1125   1.408       .  S
C1116      C1117   1.404       .  A
C1116      S1121   1.805       .  S
C1117      C1118   1.407       .  A
C1117      H1122   1.083       .  S
C1118      C1119   1.419       .  A
C1119      C1120   1.399       .  A
C1119      S1123   1.803       .  S
C1120      H1124   1.084       .  S
S1121      H1126   1.407       .  S
S1123      H1127   1.407       .  S
C1129      C1130   1.401       .  A
C1129      C1134   1.400       .  A
C1129      H1139   1.084       .  S
C1130      C1135   1.480       .  S
C1130      C1131   1.413       .  A
C1131      C1132   1.400       .  A
C1131      S1136   1.804       .  S
C1132      C1133   1.404       .  A
C1132      H1137   1.084       .  S
C1133      C1134   1.417       .  A
C1134      S1138   1.803       .  S
C1135      C1140   1.406       .  A
C1135      C1144   1.400       .  A
S1136      H1152   1.405       .  S
S1138      H1149   1.407       .  S
C1140      C1141   1.403       .  A
C1140      S1145   1.807       .  S
C1141      C1142   1.409       .  A
C1141      H1146   1.082       .  S
C1142      C1143   1.421       .  A
C1143      C1144   1.402       .  A
C1143      S1147   1.801       .  S
C1144      H1148   1.084       .  S
S1145      H1150   1.406       .  S
S1147      H1151   1.407   1_556  S
C1153      C1154   1.402       .  A
C1153      C1158   1.399       .  A
C1153      H1163   1.084       .  S
C1154      C1159   1.481       .  S
C1154      C1155   1.412       .  A
C1155      C1156   1.400       .  A
C1155      S1160   1.804       .  S
C1156      C1157   1.405       .  A
C1156      H1161   1.084       .  S
C1157      C1158   1.417       .  A
C1158      S1162   1.803       .  S
C1159      C1164   1.409       .  A
C1159      C1168   1.400       .  A
S1160      H1176   1.405       .  S
S1162      H1173   1.408       .  S
C1164      C1165   1.404       .  A
C1164      S1169   1.806       .  S
C1165      C1166   1.406       .  A
C1165      H1170   1.083       .  S
C1166      C1167   1.416       .  A
C1167      C1168   1.402       .  A
C1167      S1171   1.809       .  S
C1168      H1172   1.083       .  S
S1169      H1174   1.407       .  S
S1171      H1175   1.407       .  S
C1177      C1178   1.404       .  A
C1177      C1182   1.401       .  A
C1177      H1187   1.084       .  S
C1178      C1183   1.480       .  S
C1178      C1179   1.411       .  A
C1179      C1180   1.397       .  A
C1179      S1184   1.804       .  S
C1180      C1181   1.404       .  A
C1180      H1185   1.084       .  S
C1181      C1182   1.414       .  A
C1182      S1186   1.802       .  S
C1183      C1188   1.410       .  A
C1183      C1192   1.403       .  A
S1184      H1200   1.406       .  S
S1186      H1197   1.407       .  S
C1188      C1189   1.402       .  A
C1188      S1193   1.806       .  S
C1189      C1190   1.403       .  A
C1189      H1194   1.083       .  S
C1190      C1191   1.411       .  A
C1191      C1192   1.398       .  A
C1191      S1195   1.804       .  S
C1192      H1196   1.084       .  S
S1193      H1198   1.407       .  S
S1195      H1199   1.407       .  S
C1201      C1202   1.402       .  A
C1201      C1206   1.400       .  A
C1201      H1211   1.084       .  S
C1202      C1207   1.478       .  S
C1202      C1203   1.411       .  A
C1203      C1204   1.399       .  A
C1203      S1208   1.805       .  S
C1204      C1205   1.406       .  A
C1204      H1209   1.084       .  S
C1205      C1206   1.416       .  A
C1206      S1210   1.802       .  S
C1207      C1212   1.409       .  A
C1207      C1216   1.400       .  A
S1208      H1224   1.405       .  S
S1210      H1221   1.408       .  S
C1212      C1213   1.403       .  A
C1212      S1217   1.807       .  S
C1213      C1214   1.405       .  A
C1213      H1218   1.083       .  S
C1214      C1215   1.415       .  A
C1215      C1216   1.399       .  A
C1215      S1219   1.803       .  S
C1216      H1220   1.084       .  S
S1217      H1222   1.407       .  S
S1219      H1223   1.407   1_556  S
C1225      C1226   1.402       .  A
C1225      C1230   1.403       .  A
C1225      H1235   1.084       .  S
C1226      C1231   1.481       .  S
C1226      C1227   1.410       .  A
C1227      C1228   1.398       .  A
C1227      S1232   1.805       .  S
C1228      C1229   1.408       .  A
C1228      H1233   1.083       .  S
C1229      C1230   1.419       .  A
C1230      S1234   1.801       .  S
C1231      C1236   1.408       .  A
C1231      C1240   1.400       .  A
S1232      H1248   1.404       .  S
S1234      H1245   1.408       .  S
C1236      C1237   1.406       .  A
C1236      S1241   1.806       .  S
C1237      C1238   1.409       .  A
C1237      H1242   1.082       .  S
C1238      C1239   1.418       .  A
C1239      C1240   1.400       .  A
C1239      S1243   1.802       .  S
C1240      H1244   1.084       .  S
S1241      H1246   1.407       .  S
S1243      H1247   1.408   1_655  S
C1249      C1250   1.401       .  A
C1249      C1254   1.398       .  A
C1249      H1259   1.084       .  S
C1250      C1255   1.480       .  S
C1250      C1251   1.412       .  A
C1251      C1252   1.401       .  A
C1251      S1256   1.804       .  S
C1252      C1253   1.405       .  A
C1252      H1257   1.084       .  S
C1253      C1254   1.416       .  A
C1254      S1258   1.803       .  S
C1255      C1260   1.409       .  A
C1255      C1264   1.401       .  A
S1256      H1272   1.406   1_455  S
S1258      H1269   1.407       .  S
C1260      C1261   1.402       .  A
C1260      S1265   1.808       .  S
C1261      C1262   1.407       .  A
C1261      H1266   1.082       .  S
C1262      C1263   1.417       .  A
C1263      C1264   1.400       .  A
C1263      S1267   1.801       .  S
C1264      H1268   1.084       .  S
S1265      H1270   1.407       .  S
S1267      H1271   1.407       .  S
C1273      C1274   1.403       .  A
C1273      C1278   1.399       .  A
C1273      H1283   1.084       .  S
C1274      C1279   1.482       .  S
C1274      C1275   1.412       .  A
C1275      C1276   1.399       .  A
C1275      S1280   1.803       .  S
C1276      C1277   1.404       .  A
C1276      H1281   1.084       .  S
C1277      C1278   1.417       .  A
C1278      S1282   1.804       .  S
C1279      C1284   1.409       .  A
C1279      C1288   1.402       .  A
S1280      H1296   1.406       .  S
S1282      H1293   1.407       .  S
C1284      C1285   1.402       .  A
C1284      S1289   1.807       .  S
C1285      C1286   1.407       .  A
C1285      H1290   1.082       .  S
C1286      C1287   1.417       .  A
C1287      C1288   1.399       .  A
C1287      S1291   1.801       .  S
C1288      H1292   1.084       .  S
S1289      H1294   1.407       .  S
S1291      H1295   1.407       .  S
C1297      C1298   1.400       .  A
C1297      C1302   1.397       .  A
C1297      H1307   1.084       .  S
C1298      C1303   1.476       .  S
C1298      C1299   1.410       .  A
C1299      C1300   1.402       .  A
C1299      S1304   1.804       .  S
C1300      C1301   1.407       .  A
C1300      H1305   1.084       .  S
C1301      C1302   1.414       .  A
C1302      S1306   1.803       .  S
C1303      C1308   1.407       .  A
C1303      C1312   1.400       .  A
S1304      H1320   1.405       .  S
S1306      H1317   1.407       .  S
C1308      C1309   1.401       .  A
C1308      S1313   1.805       .  S
C1309      C1310   1.405       .  A
C1309      H1314   1.083       .  S
C1310      C1311   1.416       .  A
C1311      C1312   1.403       .  A
C1311      S1315   1.809       .  S
C1312      H1316   1.083       .  S
S1313      H1318   1.407       .  S
S1315      H1319   1.407       .  S
C1321      C1322   1.401       .  A
C1321      C1326   1.401       .  A
C1321      H1331   1.084       .  S
C1322      C1327   1.476       .  S
C1322      C1323   1.409       .  A
C1323      C1324   1.397       .  A
C1323      S1328   1.804       .  S
C1324      C1325   1.407       .  A
C1324      H1329   1.084       .  S
C1325      C1326   1.418       .  A
C1326      S1330   1.801       .  S
C1327      C1332   1.406       .  A
C1327      C1336   1.401       .  A
S1328      H1344   1.404       .  S
S1330      H1341   1.407       .  S
C1332      C1333   1.399       .  A
C1332      S1337   1.807       .  S
C1333      C1334   1.406       .  A
C1333      H1338   1.083       .  S
C1334      C1335   1.417       .  A
C1335      C1336   1.402       .  A
C1335      S1339   1.801       .  S
C1336      H1340   1.084       .  S
S1337      H1342   1.407       .  S
S1339      H1343   1.407       .  S
C1345      C1346   1.402       .  A
C1345      C1350   1.402       .  A
C1345      H1355   1.084       .  S
C1346      C1351   1.480       .  S
C1346      C1347   1.410       .  A
C1347      C1348   1.398       .  A
C1347      S1352   1.803       .  S
C1348      C1349   1.405       .  A
C1348      H1353   1.084       .  S
C1349      C1350   1.417       .  A
C1350      S1354   1.802       .  S
C1351      C1356   1.408       .  A
C1351      C1360   1.401       .  A
S1352      H1368   1.405       .  S
S1354      H1365   1.407       .  S
C1356      C1357   1.404       .  A
C1356      S1361   1.805       .  S
C1357      C1358   1.406       .  A
C1357      H1362   1.083   1_565  S
C1358      C1359   1.416       .  A
C1359      C1360   1.399       .  A
C1359      S1363   1.803       .  S
C1360      H1364   1.084       .  S
S1361      H1366   1.407   1_565  S
S1363      H1367   1.407       .  S
C1369      C1370   1.400       .  A
C1369      C1374   1.396       .  A
C1369      H1379   1.084       .  S
C1370      C1375   1.476       .  S
C1370      C1371   1.410       .  A
C1371      C1372   1.399       .  A
C1371      S1376   1.804       .  S
C1372      C1373   1.407       .  A
C1372      H1377   1.084       .  S
C1373      C1374   1.417       .  A
C1374      S1378   1.803       .  S
C1375      C1380   1.407       .  A
C1375      C1384   1.400       .  A
S1376      H1392   1.406       .  S
S1378      H1389   1.408       .  S
C1380      C1381   1.400       .  A
C1380      S1385   1.807       .  S
C1381      C1382   1.408       .  A
C1381      H1386   1.082       .  S
C1382      C1383   1.418       .  A
C1383      C1384   1.398       .  A
C1383      S1387   1.801       .  S
C1384      H1388   1.084       .  S
S1385      H1390   1.407       .  S
S1387      H1391   1.408       .  S
C1393      C1394   1.400       .  A
C1393      C1398   1.398       .  A
C1393      H1403   1.084       .  S
C1394      C1399   1.475       .  S
C1394      C1395   1.409       .  A
C1395      C1396   1.397       .  A
C1395      S1400   1.804       .  S
C1396      C1397   1.406       .  A
C1396      H1401   1.084       .  S
C1397      C1398   1.417       .  A
C1398      S1402   1.802       .  S
C1399      C1404   1.405       .  A
C1399      C1408   1.400       .  A
S1400      H1416   1.406       .  S
S1402      H1413   1.408       .  S
C1404      C1405   1.399       .  A
C1404      S1409   1.807       .  S
C1405      C1406   1.409       .  A
C1405      H1410   1.082       .  S
C1406      C1407   1.419       .  A
C1407      C1408   1.400       .  A
C1407      S1411   1.801       .  S
C1408      H1412   1.084       .  S
S1409      H1414   1.407       .  S
S1411      H1415   1.407       .  S
C1417      C1418   1.402       .  A
C1417      C1422   1.401       .  A
C1417      H1427   1.084       .  S
C1418      C1423   1.478       .  S
C1418      C1419   1.410       .  A
C1419      C1420   1.397       .  A
C1419      S1424   1.803       .  S
C1420      C1421   1.405       .  A
C1420      H1425   1.084       .  S
C1421      C1422   1.416       .  A
C1422      S1426   1.802       .  S
C1423      C1428   1.408       .  A
C1423      C1432   1.399       .  A
S1424      H1440   1.406       .  S
S1426      H1437   1.408       .  S
C1428      C1429   1.405       .  A
C1428      S1433   1.805       .  S
C1429      C1430   1.407       .  A
C1429      H1434   1.083       .  S
C1430      C1431   1.417       .  A
C1431      C1432   1.397       .  A
C1431      S1435   1.803       .  S
C1432      H1436   1.084       .  S
S1433      H1438   1.407       .  S
S1435      H1439   1.407       .  S
C1441      C1442   1.402       .  A
C1441      C1446   1.401       .  A
C1441      H1451   1.084       .  S
C1442      C1447   1.479       .  S
C1442      C1443   1.411       .  A
C1443      C1444   1.399       .  A
C1443      S1448   1.805       .  S
C1444      C1445   1.406       .  A
C1444      H1449   1.084       .  S
C1445      C1446   1.415       .  A
C1446      S1450   1.802       .  S
C1447      C1452   1.408       .  A
C1447      C1456   1.400       .  A
S1448      H1464   1.405       .  S
S1450      H1461   1.408       .  S
C1452      C1453   1.405       .  A
C1452      S1457   1.805       .  S
C1453      C1454   1.406       .  A
C1453      H1458   1.083       .  S
C1454      C1455   1.416       .  A
C1455      C1456   1.397       .  A
C1455      S1459   1.803       .  S
C1456      H1460   1.084       .  S
S1457      H1462   1.407       .  S
S1459      H1463   1.407       .  S
