geometry optimzed in LAMMPS
_audit_creation_date              2020-11-30 
_audit_creation_method            'lammps2cif' 
_symmetry_space_group_name_H-M    'P1' 
_symmetry_Int_Tables_number       1 
_symmetry_cell_setting            triclinic 
loop_ 
_symmetry_equiv_pos_as_xyz 
  x,y,z 
_cell_length_a                    33.23785536 
_cell_length_b                    33.231672076200816 
_cell_length_c                    33.340590342944694 
_cell_angle_alpha                 89.90635989390813 
_cell_angle_beta                  89.58664431168458 
_cell_angle_gamma                 90.1154956440618 
loop_ 
_atom_site_label 
_atom_site_type_symbol 
_atom_site_fract_x 
_atom_site_fract_y 
_atom_site_fract_z 
_atom_site_charge 
C1          C  0.00307576  0.23086599  0.23994347     0.04500
C2          C  0.02036032  0.25010477  0.20562336    -0.11600
C3          C  0.00626707  0.28887278  0.19378705     0.02000
C4          C  0.97862249  0.30862571  0.21914802    -0.10200
C5          C  0.96440536  0.29012647  0.25428305     0.04500
C6          C  0.97141906  0.24952930  0.26020494    -0.09600
H7          H  0.04533690  0.23630623  0.18986753     0.10100
H8          H  0.97231665  0.34028044  0.21444215     0.07600
H9          H  0.95993907  0.23570699  0.28757368     0.07500
O10         O  0.97567441  0.40900333  0.39394023    -0.78700
O11         O  0.95107193  0.40927381  0.62054382    -0.80300
O12         O  0.03755135  0.35318847  0.51056941    -0.77300
O13         O  0.89934829  0.36108129  0.50654507    -0.75700
O14         O  0.85527482  0.41396456  0.50480834    -0.77500
O15         O  0.08574283  0.40241535  0.51088557    -0.78400
O16         O  0.95052401  0.35992576  0.57289056    -0.79800
O17         O  0.96708062  0.35817258  0.43983307    -0.80000
Eu18       Eu  0.97003456  0.38911499  0.50769261     2.39200
O19         O  0.93174333  0.43509163  0.54567775    -0.87600
O20         O  0.01494849  0.42945867  0.46960605    -0.91200
C21         C  0.97050007  0.37201871  0.40364484     1.03500
C22         C  0.94365424  0.37313116  0.60872911     1.03400
C23         C  0.07500141  0.36516798  0.51119477     1.03300
C24         C  0.86318522  0.37607572  0.50543780     1.01200
H25         H  0.02581164  0.41133908  0.56843326     0.30900
O26         O  0.01094514  0.42896792  0.55090478    -0.99900
H27         H  0.91623581  0.41768688  0.44871822     0.30900
O28         O  0.93346096  0.43320571  0.46604368    -1.02500
O29         O  0.97174902  0.54032070  0.62126733    -0.79700
O30         O  0.98181474  0.53743489  0.39377595    -0.79200
O31         O  0.08729629  0.46689761  0.57871515    -0.77700
O32         O  0.85544895  0.48053289  0.56790549    -0.81000
O33         O  0.86238237  0.47798760  0.43780588    -0.78900
O34         O  0.09313552  0.46812708  0.44722447    -0.77500
O35         O  0.04619660  0.58484396  0.50685588    -0.79000
O36         O  0.91245800  0.58995570  0.50492087    -0.81000
O37         O  0.09268675  0.53419002  0.50891297    -0.77700
O38         O  0.86179675  0.54329596  0.50194313    -0.80400
O39         O  0.03756107  0.46704983  0.62628458    -0.76100
O40         O  0.04664599  0.47021580  0.39726598    -0.76200
O41         O  0.91338691  0.47335463  0.39159626    -0.75800
O42         O  0.90066420  0.47790942  0.61944022    -0.79300
O43         O  0.97497066  0.58718382  0.57077485    -0.78700
O44         O  0.97925579  0.58679190  0.44152865    -0.77000
Eu45       Eu  0.97084091  0.47321907  0.59026061     2.39800
Eu46       Eu  0.97823898  0.47259048  0.42751397     2.39600
Eu47       Eu  0.05577210  0.46919435  0.51173608     2.38400
Eu48       Eu  0.89311682  0.47691513  0.50453313     2.39900
Eu49       Eu  0.97791285  0.55408713  0.50695037     2.39800
O50         O  0.93669088  0.51595404  0.46462243    -0.91500
O51         O  0.01518056  0.51241702  0.55055620    -0.90400
C52         C  0.97254129  0.57675826  0.60776282     1.03700
C53         C  0.98120704  0.57445200  0.40499978     1.02400
C54         C  0.07543460  0.46596246  0.61574200     1.01800
C55         C  0.86424528  0.48019832  0.60546204     1.03800
C56         C  0.87575597  0.47549595  0.40152156     1.02700
C57         C  0.08346245  0.46914574  0.40973785     1.01600
C58         C  0.08295072  0.57184422  0.50690738     1.01700
C59         C  0.87493257  0.57970368  0.50295663     1.04300
H60         H  0.03716477  0.52738656  0.45252482     0.31600
O61         O  0.01912087  0.51150253  0.46897223    -1.03600
H62         H  0.91697760  0.53318019  0.56268881     0.33700
O63         O  0.93393417  0.51551329  0.54705578    -1.06200
C64         C  0.00347754  0.74947780  0.76299660     0.04500
C65         C  0.01722023  0.78438827  0.74238824    -0.11600
C66         C  0.01291228  0.78688562  0.69999428     0.02000
C67         C  0.99763639  0.75346450  0.67932384    -0.10200
C68         C  0.98506312  0.71917849  0.70011032     0.04500
C69         C  0.98507555  0.71875463  0.74152122    -0.09600
H70         H  0.03188061  0.80839093  0.75866191     0.10100
H71         H  0.99662500  0.75364713  0.64682608     0.07600
H72         H  0.97542134  0.69152830  0.75695056     0.07500
C73         C  0.00872821  0.23706208  0.70282842     0.04500
C74         C  0.03137178  0.26571749  0.72517866    -0.11600
C75         C  0.01089226  0.29417634  0.74994511     0.02000
C76         C  0.96874613  0.29484785  0.74950629    -0.10200
C77         C  0.94675522  0.27119558  0.72243513     0.04500
C78         C  0.96669056  0.23800550  0.70559743    -0.09600
H79         H  0.06382410  0.26665601  0.72242228     0.10100
H80         H  0.95387286  0.31792406  0.76683651     0.07600
H81         H  0.95011473  0.21621951  0.68830353     0.07500
C82         C  0.02431768  0.71808740  0.22138468     0.04500
C83         C  0.03149889  0.75764779  0.23565847    -0.11600
C84         C  0.02231826  0.76716143  0.27625489     0.02000
C85         C  0.00652697  0.73708058  0.30144057    -0.10200
C86         C  0.99988590  0.69824496  0.28722412     0.04500
C87         C  0.00682638  0.68968553  0.24704460    -0.09600
H88         H  0.04514243  0.77999127  0.21616932     0.10100
H89         H  0.00129947  0.74347738  0.33293406     0.07600
H90         H  0.00092023  0.65948571  0.23617484     0.07500
O91         O  0.02185371  0.07680781  0.35611117    -0.78700
O92         O  0.02837179  0.08283946  0.58518398    -0.80300
O93         O  0.94874385  0.12246974  0.45846830    -0.77300
O94         O  0.07814247  0.12441467  0.50014696    -0.75700
O95         O  0.12739122  0.07745417  0.49826277    -0.77500
O96         O  0.90328314  0.07091650  0.46282663    -0.78400
O97         O  0.02054109  0.13041736  0.53697115    -0.79800
O98         O  0.02323948  0.12813819  0.40152396    -0.80000
Eu99       Eu  0.01787150  0.09566256  0.46983447     2.39200
O100        O  0.03593782  0.02852528  0.48511828    -0.87600
O101        O  0.97866500  0.05339483  0.43048712    -0.91200
C102        C  0.02278262  0.11449138  0.36491371     1.03500
C103        C  0.02544929  0.11984298  0.57415353     1.03400
C104        C  0.91259657  0.10782083  0.45653056     1.03300
C105        C  0.11307562  0.11127805  0.50970543     1.01200
H106        H  0.96142083  0.07427585  0.53177151     0.30900
O107        O  0.97880940  0.05757259  0.51551930    -0.99900
H108        H  0.08201091  0.07693019  0.41387525     0.30900
O109        O  0.06550079  0.05943734  0.43031535    -1.02500
O110        O  0.02287773  0.95182389  0.59144573    -0.79700
O111        O  0.02645541  0.94551424  0.36189185    -0.79200
O112        O  0.90770660  0.01343595  0.54028883    -0.77700
O113        O  0.13874444  0.01967746  0.53638043    -0.81000
O114        O  0.13717059  0.02187150  0.40083931    -0.78900
O115        O  0.91005809  0.00675075  0.40710051    -0.77500
O116        O  0.96248817  0.89756005  0.47831209    -0.79000
O117        O  0.08900102  0.90067684  0.47468148    -0.81000
O118        O  0.91219659  0.94431987  0.47472503    -0.77700
O119        O  0.13728682  0.94832305  0.46225943    -0.80400
O120        O  0.95643020  0.01244517  0.58816616    -0.76100
O121        O  0.95886318  0.01063551  0.35830791    -0.76200
O122        O  0.08634332  0.01650543  0.35552489    -0.75800
O123        O  0.08997027  0.02617675  0.58397082    -0.79300
O124        O  0.02886447  0.90149586  0.54543727    -0.78700
O125        O  0.02811556  0.89923676  0.41288401    -0.77000
Eu126      Eu  0.02252192  0.01602805  0.55378757     2.39800
Eu127      Eu  0.02381896  0.01330261  0.39289260     2.39600
Eu128      Eu  0.94188625  0.01133872  0.47455767     2.38400
Eu129      Eu  0.10437962  0.01486422  0.46972625     2.39900
Eu130      Eu  0.02580280  0.93388340  0.47831551     2.39800
O131        O  0.06565020  0.97115057  0.43193165    -0.91500
O132        O  0.98111800  0.97155054  0.51867396    -0.90400
C133        C  0.02648401  0.91431518  0.58202273     1.03700
C134        C  0.02834593  0.90897727  0.37528242     1.02400
C135        C  0.91920272  0.01284837  0.57723771     1.01800
C136        C  0.12738808  0.02456416  0.57336586     1.03800
C137        C  0.12370799  0.02024556  0.36418998     1.02700
C138        C  0.92188483  0.00796817  0.36995116     1.01600
C139        C  0.92530806  0.90792307  0.47627345     1.01700
C140        C  0.12503907  0.91162195  0.46652082     1.04300
H141        H  0.96929789  0.95415931  0.41937280     0.31600
O142        O  0.98511910  0.97211035  0.43568574    -1.03600
H143        H  0.08595389  0.95977516  0.53432736     0.33700
O144        O  0.06852352  0.97546804  0.51734206    -1.06200
C145        C  0.20838722  0.25364379  0.53186726     0.04500
C146        C  0.20846559  0.24796466  0.57372389    -0.11600
C147        C  0.22048005  0.21050119  0.58820150     0.02000
C148        C  0.25624724  0.19723313  0.57011004    -0.10200
C149        C  0.25959449  0.20003644  0.52809910     0.04500
C150        C  0.23348756  0.22776570  0.50804555    -0.09600
H151        H  0.18927646  0.26645911  0.59246235     0.10100
H152        H  0.27519180  0.17620408  0.58603426     0.07600
H153        H  0.23345632  0.22983727  0.47565394     0.07500
C154        C  0.70287621  0.19687376  0.48758142     0.04500
C155        C  0.73365148  0.17687773  0.46624589    -0.11600
C156        C  0.76668126  0.19827945  0.45064788     0.02000
C157        C  0.76594511  0.24006931  0.45164978    -0.10200
C158        C  0.74111636  0.25969947  0.47921134     0.04500
C159        C  0.70821122  0.23838156  0.49652607    -0.09600
H160        H  0.73308716  0.14435550  0.46412972     0.10100
H161        H  0.79101996  0.25643392  0.43833876     0.07600
H162        H  0.68833790  0.25318382  0.51769133     0.07500
C163        C  0.73381723  0.77692505  0.50717338     0.04500
C164        C  0.76455302  0.80316215  0.49484207    -0.11600
C165        C  0.80215068  0.78854953  0.48340451     0.02000
C166        C  0.80893295  0.74732019  0.48246905    -0.10200
C167        C  0.77924510  0.72036212  0.49528503     0.04500
C168        C  0.74136001  0.73502081  0.50791067    -0.09600
H169        H  0.75946814  0.83537688  0.49488484     0.10100
H170        H  0.83838417  0.73617787  0.47372693     0.07600
H171        H  0.71835255  0.71429030  0.51829367     0.07500
C172        C  0.20127645  0.69727517  0.47602031     0.04500
C173        C  0.24152295  0.70496634  0.48846710    -0.11600
C174        C  0.26203883  0.73984546  0.47408775     0.02000
C175        C  0.24266441  0.76520950  0.44708412    -0.10200
C176        C  0.20147633  0.76196257  0.44173992     0.04500
C177        C  0.18166064  0.72651207  0.45288318    -0.09600
H178        H  0.25570183  0.68545726  0.51019046     0.10100
H179        H  0.25732162  0.79322393  0.43846135     0.07600
H180        H  0.14949541  0.72418763  0.44810929     0.07500
C181        C  0.78226142  0.99912997  0.27170320     0.04500
C182        C  0.75401055  0.98752355  0.30091976    -0.11600
C183        C  0.71307391  0.98629194  0.29252162     0.02000
C184        C  0.69998242  0.99546323  0.25403334    -0.10200
C185        C  0.72693040  0.00808305  0.22390112     0.04500
C186        C  0.76870287  0.00994930  0.23279850    -0.09600
H187        H  0.76395217  0.98027912  0.33099792     0.10100
H188        H  0.66803794  0.99396694  0.24784921     0.07600
H189        H  0.79008639  0.01968998  0.21012421     0.07500
O190        O  0.40951722  0.07938127  0.50840368    -0.78700
O191        O  0.42271278  0.84761012  0.50306763    -0.80300
O192        O  0.37069794  0.95772633  0.43677198    -0.77300
O193        O  0.36397483  0.94352637  0.56966742    -0.75700
O194        O  0.41001150  0.94241664  0.62016380    -0.77500
O195        O  0.42337886  0.96108377  0.39187551    -0.78400
O196        O  0.37018317  0.89219479  0.50296601    -0.79800
O197        O  0.36090074  0.03099379  0.50503383    -0.80000
Eu198      Eu  0.39713315  0.96264411  0.50560081     2.39200
O199        O  0.44007574  0.92285090  0.54523576    -0.87600
O200        O  0.43945788  0.00682545  0.46919064    -0.91200
C201        C  0.37247738  0.06872018  0.50582172     1.03500
C202        C  0.38480249  0.85592636  0.50251196     1.03400
C203        C  0.38598375  0.95716484  0.40101158     1.03300
C204        C  0.37454416  0.93621049  0.60626987     1.01200
H205        H  0.43032506  0.90845693  0.44848173     0.30900
O206        O  0.44447240  0.92640315  0.46624077    -0.99900
H207        H  0.41441044  0.01790060  0.56753816     0.30900
O208        O  0.43342503  0.00334789  0.55103946    -1.02500
O209        O  0.55472673  0.85788525  0.51007007    -0.79700
O210        O  0.53888514  0.08772651  0.51515102    -0.79200
O211        O  0.49223103  0.90425813  0.39432392    -0.77700
O212        O  0.47727555  0.89090253  0.61988236    -0.81000
O213        O  0.46477477  0.02681341  0.62928668    -0.78900
O214        O  0.47956275  0.04031107  0.39870006    -0.77500
O215        O  0.59840156  0.97443801  0.45021605    -0.79000
O216        O  0.58716398  0.97454651  0.58022160    -0.81000
O217        O  0.55294950  0.97254921  0.39901791    -0.77700
O218        O  0.53827836  0.96372568  0.62801548    -0.80400
O219        O  0.49132198  0.85363238  0.44103796    -0.76100
O220        O  0.47502650  0.08639390  0.44943603    -0.76200
O221        O  0.46745723  0.07684815  0.58227409    -0.75800
O222        O  0.48502220  0.84645938  0.56804253    -0.79300
O223        O  0.59882977  0.91036148  0.51618676    -0.78700
O224        O  0.59031442  0.04224443  0.51506792    -0.77000
Eu225      Eu  0.48607098  0.88589044  0.50637240     2.39800
Eu226      Eu  0.47519456  0.04860342  0.51377973     2.39600
Eu227      Eu  0.48515145  0.97076743  0.42834160     2.38400
Eu228      Eu  0.47475453  0.96191795  0.59201319     2.39900
Eu229      Eu  0.56058341  0.97352016  0.51337817     2.39800
O230        O  0.51530398  0.00824910  0.55530770    -0.91500
O231        O  0.52637753  0.93080085  0.46904082    -0.90400
C232        C  0.59049639  0.87242489  0.51444020     1.03700
C233        C  0.57676425  0.07878569  0.51500129     1.02400
C234        C  0.49307821  0.86666309  0.40476025     1.01800
C235        C  0.48111663  0.85464648  0.60551418     1.03800
C236        C  0.46368820  0.06456912  0.61901196     1.02700
C237        C  0.47660538  0.07712152  0.41175014     1.01600
C238        C  0.58910820  0.97354503  0.41276256     1.01700
C239        C  0.57484253  0.96951160  0.61644851     1.04300
H240        H  0.53678507  0.03173829  0.45665914     0.31600
O241        O  0.52032486  0.01331756  0.47210385    -1.03600
H242        H  0.53819448  0.91102622  0.56776058     0.33700
O243        O  0.52123487  0.92745138  0.55101323    -1.06200
C244        C  0.30293223  0.00587114  0.74654048     0.04500
C245        C  0.29881825  0.96388829  0.74646877    -0.11600
C246        C  0.27129880  0.94446545  0.72103104     0.02000
C247        C  0.23888846  0.96747343  0.70747148    -0.10200
C248        C  0.24315251  0.00908050  0.70261771     0.04500
C249        C  0.27580959  0.02885589  0.72241066    -0.09600
H250        H  0.32099378  0.94660475  0.76251583     0.10100
H251        H  0.21394909  0.95277326  0.69288413     0.07600
H252        H  0.28028905  0.06091288  0.71870531     0.07500
C253        C  0.78954416  0.99159156  0.69206892     0.04500
C254        C  0.75695802  0.97227276  0.67365790    -0.11600
C255        C  0.72267086  0.96223892  0.69579320     0.02000
C256        C  0.72232413  0.96680205  0.73696066    -0.10200
C257        C  0.75243965  0.98897639  0.75566321     0.04500
C258        C  0.78675913  0.00118768  0.73344706    -0.09600
H259        H  0.75676041  0.96789091  0.64144420     0.10100
H260        H  0.69475504  0.95998343  0.75337589     0.07600
H261        H  0.80977669  0.01933406  0.74748509     0.07500
C262        C  0.30092992  0.00963695  0.19652535     0.04500
C263        C  0.31957625  0.98203042  0.22240260    -0.11600
C264        C  0.29905449  0.96641625  0.25558272     0.02000
C265        C  0.25826063  0.97382989  0.26030251    -0.10200
C266        C  0.24005602  0.00501933  0.23913594     0.04500
C267        C  0.26111104  0.02279364  0.20613196    -0.09600
H268        H  0.35136705  0.97552924  0.21892009     0.10100
H269        H  0.24328673  0.96193120  0.28689646     0.07600
H270        H  0.24759143  0.04715906  0.18942601     0.07500
O271        O  0.64129336  0.00927565  0.04754493    -0.78700
O272        O  0.41062573  0.03036571  0.03211318    -0.80300
O273        O  0.53217435  0.08406934  0.08562591    -0.77300
O274        O  0.51516336  0.95524278  0.08776415    -0.75700
O275        O  0.51113772  0.90589654  0.03999942    -0.77500
O276        O  0.54173572  0.13327858  0.03813826    -0.78400
O277        O  0.45602875  0.02807212  0.08327612    -0.79800
O278        O  0.58898819  0.01715010  0.09155573    -0.80000
Eu279      Eu  0.52440864  0.01960936  0.05399592     2.39200
O280        O  0.48247219  0.98232460  0.01155748    -0.87600
O281        O  0.57185264  0.05547040  0.01573742    -0.91200
C282        C  0.62704322  0.01382430  0.08328705     1.03500
C283        C  0.41959155  0.03077498  0.06995798     1.03400
C284        C  0.53855277  0.12055146  0.07469340     1.03300
C285        C  0.51059992  0.91854478  0.07641529     1.01200
H286        H  0.47487497  0.08239216  0.02485446     0.30900
O287        O  0.49097051  0.06361470  0.00959330    -0.99900
H288        H  0.57796122  0.95521323  0.03733298     0.30900
O289        O  0.56444345  0.97307987  0.01897070    -1.02500
O290        O  0.42012286  0.02777647  0.89835617    -0.79700
O291        O  0.65138658  0.00643258  0.91867637    -0.79200
O292        O  0.47551125  0.14017255  0.96195324    -0.77700
O293        O  0.45345065  0.90912309  0.96875629    -0.81000
O294        O  0.58538842  0.89712425  0.98194227    -0.78900
O295        O  0.61113259  0.12350233  0.97609679    -0.77500
O296        O  0.55463748  0.07913411  0.85819730    -0.79000
O297        O  0.53688733  0.94996403  0.86022512    -0.81000
O298        O  0.55804288  0.12862466  0.90549632    -0.77700
O299        O  0.53016653  0.90442983  0.91152486    -0.80400
O300        O  0.42401589  0.09449187  0.96086682    -0.76100
O301        O  0.65333054  0.06956575  0.98350809    -0.76200
O302        O  0.63902652  0.94042635  0.98177961    -0.75800
O303        O  0.40874267  0.96139169  0.96694130    -0.79300
O304        O  0.47149203  0.02320079  0.85264749    -0.78700
O305        O  0.60753798  0.01234255  0.86627235    -0.77000
Eu306      Eu  0.44857589  0.02534228  0.96718673     2.39800
Eu307      Eu  0.61167584  0.00896504  0.98032291     2.39600
Eu308      Eu  0.53933669  0.10027744  0.97165393     2.38400
Eu309      Eu  0.52254591  0.93718111  0.97510450     2.39900
Eu310      Eu  0.53658430  0.01640198  0.89158198     2.39800
O311        O  0.57004939  0.97268100  0.93631375    -0.91500
O312        O  0.49701811  0.06201495  0.92905590    -0.90400
C313        C  0.43338311  0.02665474  0.86171128     1.03700
C314        C  0.64345766  0.00927019  0.88107968     1.02400
C315        C  0.43755664  0.13085706  0.95881913     1.01800
C316        C  0.41716807  0.92327233  0.96724284     1.03800
C317        C  0.62359538  0.90486031  0.98303430     1.02700
C318        C  0.64657958  0.10754071  0.98017262     1.01600
C319        C  0.56262838  0.11535025  0.86929391     1.01700
C320        C  0.53466496  0.91396550  0.87451016     1.04300
H321        H  0.59851270  0.06653556  0.92149290     0.31600
O322        O  0.57779478  0.05251651  0.93634268    -1.03600
H323        H  0.47210863  0.96448495  0.91240134     0.33700
O324        O  0.48882551  0.98016787  0.93009354    -1.06200
C325        C  0.51127622  0.26044397  0.24857428     0.04500
C326        C  0.53951044  0.24148885  0.22387913    -0.11600
C327        C  0.54328055  0.19999163  0.22486710     0.02000
C328        C  0.52810254  0.17840720  0.25774037    -0.10200
C329        C  0.50401921  0.19726151  0.28705909     0.04500
C330        C  0.49392492  0.23855799  0.28122685    -0.09600
H331        H  0.55057954  0.25728643  0.19742555     0.10100
H332        H  0.53201604  0.14603918  0.25835697     0.07600
H333        H  0.47147878  0.25262292  0.30022057     0.07500
C334        C  0.49382657  0.77225943  0.26315381     0.04500
C335        C  0.48953813  0.73206721  0.24961748    -0.11600
C336        C  0.48751738  0.72420603  0.20786537     0.02000
C337        C  0.49003243  0.75633169  0.18081320    -0.10200
C338        C  0.49410329  0.79568620  0.19435526     0.04500
C339        C  0.49596221  0.80356639  0.23519941    -0.09600
H340        H  0.48766188  0.70757510  0.27100555     0.10100
H341        H  0.48931728  0.75060430  0.14879318     0.07600
H342        H  0.49885983  0.83444450  0.24536029     0.07500
C343        C  0.49099389  0.73927302  0.72868751     0.04500
C344        C  0.50787553  0.76956505  0.75167014    -0.11600
C345        C  0.50713223  0.76796671  0.79301607     0.02000
C346        C  0.49474491  0.73286131  0.81262975    -0.10200
C347        C  0.48041160  0.69962822  0.79058173     0.04500
C348        C  0.47728678  0.70343966  0.74797231    -0.09600
H349        H  0.51806748  0.79713689  0.73719269     0.10100
H350        H  0.49559486  0.73175797  0.84510366     0.07600
H351        H  0.46389859  0.67955520  0.73049871     0.07500
C352        C  0.47860227  0.19236190  0.73504833     0.04500
C353        C  0.45782288  0.21773414  0.76273323    -0.11600
C354        C  0.48007020  0.24508071  0.78702373     0.02000
C355        C  0.52208508  0.24548277  0.78374300    -0.10200
C356        C  0.54295791  0.21620213  0.76154272     0.04500
C357        C  0.52067464  0.19377745  0.73366936    -0.09600
H358        H  0.42545167  0.21568078  0.76586340     0.10100
H359        H  0.53822337  0.26578010  0.80310857     0.07600
H360        H  0.53569578  0.17343032  0.71332358     0.07500
O361        O  0.03383277  0.39953564  0.03129933    -0.78700
O362        O  0.02257487  0.63081100  0.04810455    -0.80300
O363        O  0.09243113  0.51812190  0.08592448    -0.77300
O364        O  0.96215904  0.51168361  0.08803223    -0.75700
O365        O  0.91316468  0.51501739  0.04012981    -0.77500
O366        O  0.14241816  0.52799027  0.03913021    -0.78400
O367        O  0.02957023  0.57897138  0.09265326    -0.79800
O368        O  0.03225586  0.44453667  0.08308532    -0.80000
Eu369      Eu  0.02761753  0.51402367  0.05466553     2.39200
O370        O  0.98307090  0.55589345  0.01936300    -0.87600
O371        O  0.07089485  0.47880468  0.01051227    -0.91200
C372        C  0.03375487  0.40805628  0.06923037     1.03500
C373        C  0.02730629  0.61699276  0.08385368     1.03400
C374        C  0.12916921  0.52442722  0.07554589     1.03300
C375        C  0.92523561  0.51307802  0.07665826     1.01200
H376        H  0.08142278  0.57670953  0.03362795     0.30900
O377        O  0.06566911  0.55976717  0.01625262    -0.99900
H378        H  0.97272327  0.45521571  0.02745962     0.30900
O379        O  0.98864412  0.47388460  0.01174642    -1.02500
O380        O  0.02052105  0.64150683  0.92027679    -0.79700
O381        O  0.03469107  0.41041084  0.89924071    -0.79200
O382        O  0.13655420  0.59607698  0.97549456    -0.77700
O383        O  0.90773411  0.57990983  0.97502739    -0.81000
O384        O  0.91512055  0.44824086  0.96965136    -0.78900
O385        O  0.14571100  0.45848191  0.96294136    -0.77500
O386        O  0.08952917  0.54666949  0.86053625    -0.79000
O387        O  0.95962584  0.52696423  0.85934678    -0.81000
O388        O  0.13883165  0.54706152  0.90785841    -0.77700
O389        O  0.91373303  0.51894585  0.91041957    -0.80400
O390        O  0.08379324  0.63995017  0.98193451    -0.76100
O391        O  0.09858476  0.40830230  0.96180710    -0.76200
O392        O  0.96574412  0.40191734  0.96533496    -0.75800
O393        O  0.95309616  0.63108986  0.98286613    -0.79300
O394        O  0.02413923  0.59851622  0.86666204    -0.78700
O395        O  0.03365550  0.46151642  0.85328704    -0.77000
Eu396      Eu  0.02111451  0.60134105  0.98094824     2.39800
Eu397      Eu  0.03134955  0.43858649  0.96745681     2.39600
Eu398      Eu  0.10979289  0.52526714  0.97249739     2.38400
Eu399      Eu  0.94591724  0.51602379  0.97466481     2.39900
Eu400      Eu  0.02605985  0.52690101  0.89151089     2.39800
O401        O  0.98820818  0.48049731  0.93014992    -0.91500
O402        O  0.06331830  0.56495682  0.93744052    -0.90400
C403        C  0.02216821  0.63422618  0.88250929     1.03700
C404        C  0.03583525  0.42348003  0.86273223     1.02400
C405        C  0.12163766  0.63206321  0.97923166     1.01800
C406        C  0.91693179  0.61751926  0.97889397     1.03800
C407        C  0.92796998  0.41158878  0.96666363     1.02700
C408        C  0.13542220  0.42064363  0.96002376     1.01600
C409        C  0.12554151  0.55433908  0.87225935     1.01700
C410        C  0.92355979  0.52291709  0.87336345     1.04300
H411        H  0.08772527  0.47155941  0.91055646     0.31600
O412        O  0.07004995  0.48544226  0.92898047    -1.03600
H413        H  0.96574543  0.57933269  0.92097616     0.33700
O414        O  0.98339493  0.56210110  0.93613743    -1.06200
C415        C  0.72994017  0.48242683  0.20707136     0.04500
C416        C  0.76089859  0.49352725  0.18044917    -0.11600
C417        C  0.80011180  0.49884481  0.19388897     0.02000
C418        C  0.80862001  0.49474733  0.23436517    -0.10200
C419        C  0.77878461  0.48324846  0.26178305     0.04500
C420        C  0.73880619  0.47748556  0.24837783    -0.09600
H421        H  0.75474258  0.49642664  0.14866865     0.10100
H422        H  0.83936113  0.49879648  0.24440589     0.07600
H423        H  0.71558022  0.46782676  0.26921487     0.07500
C424        C  0.20392528  0.50466736  0.28726479     0.04500
C425        C  0.24409551  0.49138093  0.28082357    -0.11600
C426        C  0.26709250  0.50742595  0.24844942     0.02000
C427        C  0.25006894  0.53656224  0.22355310    -0.10200
C428        C  0.20896020  0.54324051  0.22501192     0.04500
C429        C  0.18735406  0.53183606  0.25941713    -0.09600
H430        H  0.25623384  0.46723306  0.29887115     0.10100
H431        H  0.26637669  0.54563177  0.19664009     0.07600
H432        H  0.15563798  0.53919187  0.26101358     0.07500
C433        C  0.20205203  0.48866335  0.73411231     0.04500
C434        C  0.22612712  0.46646467  0.76169360    -0.11600
C435        C  0.25189503  0.48727138  0.78875903     0.02000
C436        C  0.25245654  0.52932092  0.78785596    -0.10200
C437        C  0.22427834  0.55145262  0.76555909     0.04500
C438        C  0.20302447  0.53079968  0.73557040    -0.09600
H439        H  0.22420110  0.43396516  0.76264971     0.10100
H440        H  0.27178668  0.54436705  0.80902663     0.07600
H441        H  0.18317100  0.54707809  0.71582445     0.07500
C442        C  0.74783511  0.49590625  0.72951014     0.04500
C443        C  0.77723136  0.51373393  0.75300572    -0.11600
C444        C  0.77401020  0.51427034  0.79421643     0.02000
C445        C  0.73858052  0.50162196  0.81305750    -0.10200
C446        C  0.70660641  0.48501791  0.79088145     0.04500
C447        C  0.71182914  0.48126536  0.74831286    -0.09600
H448        H  0.80573480  0.52253530  0.73935531     0.10100
H449        H  0.73679702  0.50348689  0.84545693     0.07600
H450        H  0.68921895  0.46620056  0.73057257     0.07500
C451        C  0.30612968  0.24212676  0.97060030     0.04500
C452        C  0.30080238  0.23758391  0.01200497    -0.11600
C453        C  0.27701917  0.26458174  0.03413455     0.02000
C454        C  0.24876360  0.28739143  0.01268130    -0.10200
C455        C  0.25184347  0.29230158  0.97103431     0.04500
C456        C  0.28175761  0.27025427  0.94966292    -0.09600
H457        H  0.32010637  0.21651447  0.02729784     0.10100
H458        H  0.22729175  0.30597949  0.02853814     0.07600
H459        H  0.28631953  0.27525137  0.91786659     0.07500
O460        O  0.48337478  0.41397775  0.13368133    -0.78700
O461        O  0.46532376  0.39755782  0.90341499    -0.80300
O462        O  0.41194250  0.35878623  0.03979229    -0.77300
O463        O  0.54367501  0.35526288  0.02077689    -0.75700
O464        O  0.58992060  0.40590901  0.01250172    -0.77500
O465        O  0.36298661  0.40687042  0.04151212    -0.78400
O466        O  0.46772856  0.35104575  0.95397415    -0.79800
O467        O  0.47881538  0.36050330  0.09066995    -0.80000
Eu468      Eu  0.47650404  0.38782438  0.02011135     2.39200
O469        O  0.51402532  0.42610341  0.97316120    -0.87600
O470        O  0.44051230  0.43443882  0.05946117    -0.91200
C471        C  0.48147900  0.37596209  0.12642077     1.03500
C472        C  0.46449462  0.36084736  0.91617593     1.03400
C473        C  0.37585784  0.37071326  0.04745542     1.03300
C474        C  0.57999324  0.36896826  0.01730999     1.01200
H475        H  0.41395259  0.40936201  0.96680318     0.30900
O476        O  0.43227213  0.42719075  0.98045932    -0.99900
H477        H  0.53750914  0.41623538  0.07177410     0.30900
O478        O  0.51980973  0.43177595  0.05496291    -1.02500
O479        O  0.46707876  0.53022046  0.89538119    -0.79700
O480        O  0.48649420  0.54521959  0.12466110    -0.79200
O481        O  0.35564105  0.46485692  0.95622734    -0.77700
O482        O  0.58648533  0.46374437  0.94023549    -0.81000
O483        O  0.59544258  0.47103460  0.07220502    -0.78900
O484        O  0.36922470  0.47407665  0.09363181    -0.77500
O485        O  0.41332761  0.58445872  0.01233407    -0.79000
O486        O  0.54451365  0.58290900  0.00596499    -0.81000
O487        O  0.36230506  0.53875541  0.02198430    -0.77700
O488        O  0.59220676  0.53329718  0.00348008    -0.80400
O489        O  0.40213376  0.46280396  0.90540413    -0.76100
O490        O  0.42264859  0.47800933  0.13639660    -0.76200
O491        O  0.55135851  0.47714669  0.12474625    -0.75800
O492        O  0.53576344  0.46206695  0.89436041    -0.79300
O493        O  0.47008849  0.58147097  0.94105601    -0.78700
O494        O  0.47972854  0.58982374  0.07277787    -0.77000
Eu495      Eu  0.47070799  0.46518230  0.93285104     2.39800
Eu496      Eu  0.48357743  0.47697168  0.09565196     2.39600
Eu497      Eu  0.39383420  0.47131102  0.02174036     2.38400
Eu498      Eu  0.55713616  0.46972079  0.00838601     2.39900
Eu499      Eu  0.47762557  0.55160756  0.00899311     2.39800
O500        O  0.52167368  0.51469218  0.04959506    -0.91500
O501        O  0.43321086  0.50826379  0.97506547    -0.90400
C502        C  0.46706344  0.56810568  0.90469697     1.03700
C503        C  0.48340441  0.58122982  0.11045107     1.02400
C504        C  0.36537203  0.46261270  0.91826221     1.01800
C505        C  0.57362776  0.46185499  0.90372513     1.03800
C506        C  0.58722938  0.47385016  0.11014697     1.02700
C507        C  0.38470781  0.47628314  0.12937878     1.01600
C508        C  0.37629233  0.57485050  0.01772742     1.01700
C509        C  0.58116920  0.57028408  0.00425806     1.04300
H510        H  0.42379845  0.53246754  0.07288906     0.31600
O511        O  0.43889379  0.51449547  0.05576887    -1.03600
H512        H  0.53063865  0.52398196  0.94845321     0.33700
O513        O  0.51483087  0.50838822  0.96731494    -1.06200
C514        C  0.77345500  0.71149408  0.98921409     0.04500
C515        C  0.76089896  0.75226871  0.98973916    -0.11600
C516        C  0.71978032  0.76157593  0.99687385     0.02000
C517        C  0.69227574  0.73004037  0.00247182    -0.10200
C518        C  0.70469594  0.69004027  0.00175710     0.04500
C519        C  0.74515051  0.68100858  0.99580081    -0.09600
H520        H  0.78256014  0.77613711  0.98462044     0.10100
H521        H  0.66048702  0.73665648  0.00584525     0.07600
H522        H  0.75468817  0.64979892  0.99571969     0.07500
C523        C  0.30259898  0.79394793  0.99316430     0.04500
C524        C  0.26081351  0.78691190  0.98643067    -0.11600
C525        C  0.24204063  0.75187675  0.00276902     0.02000
C526        C  0.26446431  0.72605842  0.02666532    -0.10200
C527        C  0.30601096  0.72890168  0.02701455     0.04500
C528        C  0.32493061  0.76360937  0.01230717    -0.09600
H529        H  0.24387159  0.80715575  0.96754217     0.10100
H530        H  0.25059799  0.69831687  0.03729026     0.07600
H531        H  0.35746987  0.76557011  0.01325138     0.07500
C532        C  0.79927509  0.29407889  0.98630367     0.04500
C533        C  0.79525694  0.25213649  0.97791609    -0.11600
C534        C  0.75995497  0.23120399  0.99059639     0.02000
C535        C  0.72994149  0.25201010  0.01125083    -0.10200
C536        C  0.73213904  0.29321498  0.01629744     0.04500
C537        C  0.76716470  0.31387550  0.00566109    -0.09600
H538        H  0.81823159  0.23662784  0.96077290     0.10100
H539        H  0.70180706  0.23681631  0.01848558     0.07600
H540        H  0.76814663  0.34615452  0.01017338     0.07500
C541        C  0.63758225  0.34139518  0.98193477     0.25000
C542        C  0.61427372  0.34192707  0.01708632    -0.23100
C543        C  0.63063617  0.32795636  0.05327866     0.19900
C544        C  0.67013326  0.31334614  0.05394603     0.24900
C545        C  0.69369905  0.31433556  0.01884673    -0.23100
C546        C  0.67714785  0.32836100  0.98289368     0.19800
F547        F  0.69921994  0.32862182  0.94843019    -0.13000
F548        F  0.62240292  0.35567964  0.94698989    -0.15400
F549        F  0.68568360  0.29895019  0.08865792    -0.15400
F550        F  0.60923614  0.33044478  0.08802361    -0.13000
C551        C  0.33884755  0.62503266  0.05730246     0.25000
C552        C  0.34955954  0.60931416  0.01970363    -0.23100
C553        C  0.34686517  0.63348438  0.98544436     0.19900
C554        C  0.33675548  0.67387524  0.98891240     0.24900
C555        C  0.32689735  0.69015316  0.02659907    -0.23100
C556        C  0.32666615  0.66515868  0.06062800     0.19800
F557        F  0.31459501  0.67966964  0.09678133    -0.13000
F558        F  0.34197735  0.60202433  0.09081149    -0.15400
F559        F  0.33490721  0.69681606  0.95519449    -0.15400
F560        F  0.35521295  0.61794776  0.94871663    -0.13000
C561        C  0.61480714  0.62894743  0.03472815     0.25000
C562        C  0.61315004  0.60021458  0.00406633    -0.23100
C563        C  0.64319230  0.59911521  0.97436376     0.19900
C564        C  0.67348323  0.62807966  0.97399862     0.24900
C565        C  0.67465940  0.65765378  0.00408947    -0.23100
C566        C  0.64564100  0.65737773  0.03495764     0.19800
F567        F  0.64740187  0.68441131  0.06540035    -0.13000
F568        F  0.58720625  0.62865223  0.06497733    -0.15400
F569        F  0.70068984  0.62821339  0.94339983    -0.15400
F570        F  0.64246779  0.57073964  0.94509076    -0.13000
C571        C  0.33239000  0.27109733  0.08249649     0.25000
C572        C  0.29169944  0.27933207  0.07438287    -0.23100
C573        C  0.28048922  0.31896451  0.08421376     0.19900
C574        C  0.30741899  0.35003089  0.07444066     0.24900
C575        C  0.34772137  0.34041030  0.06462330    -0.23100
C576        C  0.36076791  0.30067018  0.07266616     0.19800
F577        F  0.39989577  0.28965833  0.06867616    -0.13000
F578        F  0.34492699  0.23298216  0.08997864    -0.15400
F579        F  0.29345535  0.38827125  0.07229121    -0.15400
F580        F  0.24172299  0.32783380  0.09360804    -0.13000
C581        C  0.67558247  0.44999103  0.85118776     0.25000
C582        C  0.67014811  0.47055386  0.81443268    -0.23100
C583        C  0.63063274  0.48234723  0.80466769     0.19900
C584        C  0.59844579  0.47682225  0.83227924     0.24900
C585        C  0.60518428  0.46057086  0.87089464    -0.23100
C586        C  0.64403288  0.44580906  0.87910540     0.19800
F587        F  0.65206442  0.42799499  0.91483500    -0.13000
F588        F  0.71228349  0.43520077  0.86107249    -0.15400
F589        F  0.56120429  0.48972886  0.82204732    -0.15400
F590        F  0.62352994  0.50173439  0.76959899    -0.13000
C591        C  0.29265355  0.47123259  0.89399343     0.25000
C592        C  0.33305103  0.46057046  0.88617806    -0.23100
C593        C  0.34327097  0.45091193  0.84583628     0.19900
C594        C  0.31533580  0.45504411  0.81443542     0.24900
C595        C  0.27597794  0.46836080  0.82197191    -0.23100
C596        C  0.26472814  0.47528254  0.86240687     0.19800
F597        F  0.22729084  0.48926416  0.87097873    -0.13000
F598        F  0.28069395  0.48062153  0.93181294    -0.15400
F599        F  0.32788864  0.44921728  0.77605413    -0.15400
F600        F  0.38113790  0.43917512  0.83602606    -0.13000
C601        C  0.34015321  0.50561325  0.23120895     0.25000
C602        C  0.30222529  0.48695309  0.22999586    -0.23100
C603        C  0.29408315  0.46026363  0.19826585     0.19900
C604        C  0.32138551  0.45568214  0.16637188     0.24900
C605        C  0.35760391  0.47749021  0.16538703    -0.23100
C606        C  0.36774499  0.50072619  0.19941178     0.19800
F607        F  0.40302187  0.52136552  0.20057423    -0.13000
F608        F  0.34878590  0.53181774  0.26116099    -0.15400
F609        F  0.31169213  0.43089450  0.13574704    -0.15400
F610        F  0.25717647  0.44293186  0.19543095    -0.13000
C611        C  0.68709257  0.44649005  0.15739168     0.25000
C612        C  0.68984059  0.47425180  0.18917776    -0.23100
C613        C  0.65685695  0.49945191  0.19718341     0.19900
C614        C  0.62272814  0.49843251  0.17242273     0.24900
C615        C  0.62134819  0.47262102  0.13885855    -0.23100
C616        C  0.65342321  0.44583789  0.13243375     0.19800
F617        F  0.65246170  0.41928732  0.10153249    -0.13000
F618        F  0.71827201  0.42139160  0.14915045    -0.15400
F619        F  0.59224076  0.52456901  0.17969698    -0.15400
F620        F  0.65892970  0.52710099  0.22703127    -0.13000
C621        C  0.85776628  0.65010956  0.94578322     0.25000
C622        C  0.88364605  0.64714247  0.97882396    -0.23100
C623        C  0.87633830  0.67137165  0.01262419     0.19900
C624        C  0.84220904  0.69617877  0.01446639     0.24900
C625        C  0.81541701  0.69799936  0.98210353    -0.23100
C626        C  0.82418231  0.67559190  0.94727351     0.19800
F627        F  0.79824441  0.67592683  0.91597047    -0.13000
F628        F  0.86424711  0.62729025  0.91260556    -0.15400
F629        F  0.83319240  0.71535088  0.04929392    -0.15400
F630        F  0.90043340  0.66843734  0.04518340    -0.13000
C631        C  0.87383538  0.31111151  0.98614972     0.25000
C632        C  0.83449067  0.31958043  0.97335411    -0.23100
C633        C  0.82759258  0.35676150  0.95400844     0.19900
C634        C  0.85802117  0.38595340  0.95085307     0.24900
C635        C  0.89693434  0.37854175  0.96572658    -0.23100
C636        C  0.90479917  0.34000632  0.98189618     0.19800
F637        F  0.94185612  0.33111536  0.99612301    -0.13000
F638        F  0.88169814  0.27607416  0.00549767    -0.15400
F639        F  0.84888705  0.42194308  0.93392928    -0.15400
F640        F  0.79049224  0.36568987  0.93967378    -0.13000
C641        C  0.17148553  0.72885327  0.01512853     0.25000
C642        C  0.20413175  0.73308620  0.98824852    -0.23100
C643        C  0.20762970  0.70507804  0.95663116     0.19900
C644        C  0.18073688  0.67257880  0.95339952     0.24900
C645        C  0.14935922  0.66736620  0.98134008    -0.23100
C646        C  0.14415425  0.69670237  0.01142250     0.19800
F647        F  0.11450363  0.69235965  0.03935316    -0.13000
F648        F  0.16871587  0.75326076  0.04763244    -0.15400
F649        F  0.18610949  0.64552474  0.92355263    -0.15400
F650        F  0.24025119  0.70627617  0.93188739    -0.13000
C651        C  0.23754252  0.36555992  0.95953170     0.25000
C652        C  0.22617538  0.32505278  0.95384414    -0.23100
C653        C  0.18561714  0.31694335  0.94553866     0.19900
C654        C  0.15665521  0.34786835  0.94606460     0.24900
C655        C  0.16739748  0.38839900  0.95459726    -0.23100
C656        C  0.20872549  0.39675185  0.95965623     0.19800
F657        F  0.22114808  0.43476599  0.96759808    -0.13000
F658        F  0.27629878  0.37452817  0.96854293    -0.15400
F659        F  0.11768610  0.33732096  0.94015582    -0.15400
F660        F  0.17341915  0.27831371  0.94009971    -0.13000
C661        C  0.83466141  0.55366508  0.81311182     0.25000
C662        C  0.81169047  0.51820714  0.81615810    -0.23100
C663        C  0.82882463  0.48329280  0.83237370     0.19900
C664        C  0.86772434  0.48432947  0.84708430     0.24900
C665        C  0.88979492  0.52024472  0.84628336    -0.23100
C666        C  0.87355410  0.55488122  0.82869736     0.19800
F667        F  0.89459056  0.58994121  0.82806235    -0.13000
F668        F  0.81932795  0.58676890  0.79489083    -0.15400
F669        F  0.88370662  0.45056190  0.86350644    -0.15400
F670        F  0.80839467  0.44784301  0.83261686    -0.13000
C671        C  0.21873783  0.59850164  0.82229045     0.25000
C672        C  0.20798052  0.59049516  0.78233082    -0.23100
C673        C  0.16693006  0.59736115  0.77493657     0.19900
C674        C  0.13906998  0.58506745  0.80416658     0.24900
C675        C  0.15291837  0.57386830  0.84273261    -0.23100
C676        C  0.19299376  0.58405708  0.85250815     0.19800
F677        F  0.20789810  0.57806399  0.88981106    -0.13000
F678        F  0.25690916  0.60957164  0.83144473    -0.15400
F679        F  0.09958984  0.58287915  0.79417424    -0.15400
F680        F  0.15399870  0.60753727  0.73776145    -0.13000
C681        C  0.17631521  0.56420906  0.11802674     0.25000
C682        C  0.15656569  0.52780626  0.10936460    -0.23100
C683        C  0.15471425  0.49740171  0.13836204     0.19900
C684        C  0.17090159  0.50346139  0.17596558     0.24900
C685        C  0.18862072  0.54055642  0.18597337    -0.23100
C686        C  0.19275372  0.57041796  0.15623408     0.19800
F687        F  0.21225187  0.60537220  0.16432461    -0.13000
F688        F  0.17763811  0.59429244  0.09044098    -0.15400
F689        F  0.17042830  0.47228352  0.20229559    -0.15400
F690        F  0.13571382  0.46206935  0.13057674    -0.13000
C691        C  0.86465917  0.47601913  0.16405819     0.25000
C692        C  0.83317274  0.50419369  0.16509973    -0.23100
C693        C  0.83280301  0.53627403  0.13772080     0.19900
C694        C  0.86312372  0.53953445  0.10878175     0.24900
C695        C  0.89439665  0.51119863  0.10775814    -0.23100
C696        C  0.89534228  0.47979545  0.13577491     0.19800
F697        F  0.92496775  0.45170524  0.13441408    -0.13000
F698        F  0.86482029  0.44396392  0.18939072    -0.15400
F699        F  0.86224173  0.57042983  0.08208149    -0.15400
F700        F  0.80325376  0.56439758  0.13928108    -0.13000
C701        C  0.44922287  0.30919215  0.81369445     0.25000
C702        C  0.46321312  0.26998581  0.82083809    -0.23100
C703        C  0.47346184  0.25972734  0.86063885     0.19900
C704        C  0.47181719  0.28826600  0.89189445     0.24900
C705        C  0.46033664  0.32839041  0.88441936    -0.23100
C706        C  0.44770892  0.33791431  0.84486292     0.19800
F707        F  0.43558610  0.37572745  0.83553746    -0.13000
F708        F  0.44014616  0.32076115  0.77574816    -0.15400
F709        F  0.48474706  0.27725205  0.92879314    -0.15400
F710        F  0.48897093  0.22279941  0.86849758    -0.13000
C711        C  0.44436686  0.66572384  0.84834716     0.25000
C712        C  0.46896356  0.66240947  0.81382795    -0.23100
C713        C  0.48835973  0.62539671  0.80681618     0.19900
C714        C  0.48570121  0.59376501  0.83509409     0.24900
C715        C  0.46437270  0.59871795  0.87152310    -0.23100
C716        C  0.44267211  0.63470980  0.87702183     0.19800
F717        F  0.42054599  0.64048854  0.91080951    -0.13000
F718        F  0.42332387  0.70005107  0.85529259    -0.15400
F719        F  0.50661503  0.55942557  0.82819301    -0.15400
F720        F  0.51246147  0.62088635  0.77412351    -0.13000
C721        C  0.45040961  0.64217283  0.13936473     0.25000
C722        C  0.48281826  0.61514717  0.13935860    -0.23100
C723        C  0.51480666  0.62174240  0.16606960     0.19900
C724        C  0.51517043  0.65592245  0.19095596     0.24900
C725        C  0.48308066  0.68342481  0.19021035    -0.23100
C726        C  0.45044585  0.67580853  0.16455907     0.19800
F727        F  0.41964095  0.70248808  0.16214516    -0.13000
F728        F  0.41895816  0.63639249  0.11427529    -0.15400
F729        F  0.54827849  0.66393866  0.21320454    -0.15400
F730        F  0.54696777  0.59667281  0.16600934    -0.13000
C731        C  0.45888279  0.31531811  0.16736539     0.25000
C732        C  0.48399790  0.34908582  0.16238719    -0.23100
C733        C  0.51154832  0.35811106  0.19314317     0.19900
C734        C  0.51640400  0.33205947  0.22602461     0.24900
C735        C  0.49320288  0.29671201  0.22955481    -0.23100
C736        C  0.46296619  0.28990601  0.20087888     0.19800
F737        F  0.44045349  0.25583489  0.20293346    -0.13000
F738        F  0.43092424  0.30629756  0.13943839    -0.15400
F739        F  0.54653270  0.33930823  0.25233308    -0.15400
F740        F  0.53613515  0.39066275  0.18978751    -0.13000
C741        C  0.71270645  0.13242520  0.00832008     0.25000
C742        C  0.68249532  0.13432263  0.97888935    -0.23100
C743        C  0.68762061  0.16113223  0.94672081     0.19900
C744        C  0.72006920  0.18818792  0.94578600     0.24900
C745        C  0.74726654  0.19023002  0.97799268    -0.23100
C746        C  0.74477749  0.16021484  0.00784120     0.19800
F747        F  0.77058201  0.16114376  0.03921448    -0.13000
F748        F  0.70943267  0.10602159  0.03931959    -0.15400
F749        F  0.72161460  0.21626272  0.91620371    -0.15400
F750        F  0.66024767  0.16200313  0.91674880    -0.13000
C751        C  0.34763047  0.89958030  0.98962405     0.25000
C752        C  0.38317050  0.89322932  0.96702629    -0.23100
C753        C  0.38748827  0.85605025  0.94713283     0.19900
C754        C  0.35916829  0.82496802  0.95272717     0.24900
C755        C  0.32536710  0.83014820  0.97804424    -0.23100
C756        C  0.31914334  0.86838545  0.99513056     0.19800
F757        F  0.28718256  0.87457169  0.01990837    -0.13000
F758        F  0.34187687  0.93498165  0.00899448    -0.15400
F759        F  0.36594636  0.78879964  0.93504356    -0.15400
F760        F  0.41979138  0.84936131  0.92289438    -0.13000
C761        C  0.67696349  0.81525110  0.02789264     0.25000
C762        C  0.70280109  0.80307717  0.99639246    -0.23100
C763        C  0.70458810  0.82670744  0.96136772     0.19900
C764        C  0.67931637  0.86036801  0.95706909     0.24900
C765        C  0.65179401  0.87073520  0.98765496    -0.23100
C766        C  0.65173526  0.84862490  0.02348599     0.19800
F767        F  0.62675133  0.85913599  0.05411797    -0.13000
F768        F  0.67466133  0.79340520  0.06230447    -0.15400
F769        F  0.68011769  0.88145400  0.92218626    -0.14200
F770        F  0.72854600  0.81548109  0.93021362    -0.13000
C771        C  0.41271387  0.20378640  0.96271398     0.25000
C772        C  0.40606662  0.16306131  0.95283378    -0.23100
C773        C  0.36695141  0.15217691  0.93991353     0.19900
C774        C  0.33503995  0.17977273  0.94047203     0.24900
C775        C  0.34098722  0.21948079  0.95318345    -0.23100
C776        C  0.38057645  0.23158323  0.96281510     0.19800
F777        F  0.38729719  0.26956709  0.97616016    -0.13000
F778        F  0.44938533  0.21610212  0.97550481    -0.15400
F779        F  0.29732872  0.16646408  0.93235140    -0.15400
F780        F  0.35856660  0.11385427  0.92889207    -0.13000
C781        C  0.58367156  0.13070943  0.79792945     0.25000
C782        C  0.57811510  0.14337330  0.83810291    -0.23100
C783        C  0.58790445  0.18362903  0.84734234     0.19900
C784        C  0.59328341  0.21141102  0.81616738     0.24900
C785        C  0.58246010  0.20001958  0.77693588    -0.23100
C786        C  0.59058984  0.15942773  0.76800860     0.19800
F787        F  0.59709875  0.14722742  0.72967557    -0.13000
F788        F  0.58034559  0.09149328  0.78704996    -0.15400
F789        F  0.60175085  0.25032162  0.82511575    -0.15400
F790        F  0.59018586  0.19661228  0.88583008    -0.13000
C791        C  0.50358650  0.87752969  0.81929146     0.25000
C792        C  0.53437886  0.88004518  0.84744022    -0.23100
C793        C  0.55683532  0.84573402  0.85757456     0.19900
C794        C  0.54713048  0.80852722  0.84113965     0.24900
C795        C  0.51527029  0.80564079  0.81411749    -0.23100
C796        C  0.49362646  0.84040150  0.80316491     0.19800
F797        F  0.46205015  0.83806094  0.77759817    -0.13000
F798        F  0.48096103  0.91026347  0.81013682    -0.15400
F799        F  0.56856983  0.77548405  0.85164676    -0.15400
F800        F  0.58685071  0.84818676  0.88492432    -0.13000
C801        C  0.53599921  0.88262074  0.13548774     0.25000
C802        C  0.50534611  0.88854680  0.10752301    -0.23100
C803        C  0.47043580  0.86489490  0.10869474     0.19900
C804        C  0.46639611  0.83491456  0.13762399     0.24900
C805        C  0.49725409  0.82862489  0.16546091    -0.23100
C806        C  0.53187686  0.85287491  0.16460048     0.19800
F807        F  0.56222841  0.84667502  0.19094022    -0.13000
F808        F  0.57052837  0.90449888  0.13340001    -0.15400
F809        F  0.43244795  0.81211287  0.13866900    -0.15400
F810        F  0.44032980  0.87112020  0.08206369    -0.13000
C811        C  0.57815958  0.15863944  0.12477313     0.25000
C812        C  0.54077930  0.14880787  0.10783783    -0.23100
C813        C  0.50522835  0.15622618  0.12922981     0.19900
C814        C  0.50683499  0.17202477  0.16764492     0.24900
C815        C  0.54408061  0.18048306  0.18546455    -0.23100
C816        C  0.57977248  0.17520310  0.16338744     0.19800
F817        F  0.61583675  0.18501248  0.17955922    -0.13000
F818        F  0.61287805  0.14994005  0.10493684    -0.15400
F819        F  0.47186201  0.17896081  0.18776818    -0.15400
F820        F  0.46899918  0.14570864  0.11375756    -0.13000
C821        C  0.36405835  0.04297637  0.17038824     0.25000
C822        C  0.32612041  0.02570696  0.16245939    -0.23100
C823        C  0.31728248  0.01548623  0.12256028     0.19900
C824        C  0.34668360  0.01936938  0.09198321     0.24900
C825        C  0.38595119  0.03326414  0.10059913    -0.23100
C826        C  0.39344414  0.04680009  0.14002000     0.19800
F827        F  0.42973815  0.06278222  0.14968609    -0.13000
F828        F  0.37358256  0.05394195  0.20839914    -0.15400
F829        F  0.33737101  0.00686675  0.05447739    -0.15400
F830        F  0.28123687  0.99856102  0.11372644    -0.13000
C831        C  0.74117973  0.98096203  0.82846826     0.25000
C832        C  0.73995556  0.00605274  0.79458104    -0.23100
C833        C  0.71067101  0.03662101  0.79308663     0.19900
C834        C  0.68001045  0.03831641  0.82196257     0.24900
C835        C  0.67840354  0.01005117  0.85322462    -0.23100
C836        C  0.71062666  0.98292873  0.85767389     0.19800
F837        F  0.71066226  0.95592455  0.88824717    -0.13000
F838        F  0.76900406  0.95119591  0.83052845    -0.15400
F839        F  0.65086764  0.06654064  0.81841721    -0.15400
F840        F  0.70799023  0.06056310  0.76014500    -0.13000
C841        C  0.37786981  0.00951868  0.76126765     0.25000
C842        C  0.33811732  0.02225028  0.77020151    -0.23100
C843        C  0.33145761  0.04032345  0.80768595     0.19900
C844        C  0.36250413  0.04309698  0.83634718     0.24900
C845        C  0.40193173  0.02853906  0.82847700    -0.23100
C846        C  0.40931772  0.01316691  0.78957413     0.19800
F847        F  0.44628952  0.99884870  0.77968148    -0.13000
F848        F  0.38563353  0.99068276  0.72593001    -0.15400
F849        F  0.35308619  0.05858175  0.87274449    -0.15400
F850        F  0.29375866  0.05222663  0.81804263    -0.13000
C851        C  0.49032316  0.15023790  0.39099928     0.25000
C852        C  0.47624904  0.11113255  0.38139893    -0.23100
C853        C  0.46334700  0.10459865  0.34173619     0.19900
C854        C  0.46874248  0.13425355  0.31191453     0.24900
C855        C  0.48758565  0.17135627  0.32057631    -0.23100
C856        C  0.49658387  0.17963875  0.36088455     0.19800
F857        F  0.51388427  0.21527087  0.37080072    -0.13000
F858        F  0.49956412  0.15978025  0.42932595    -0.15400
F859        F  0.45668404  0.12613103  0.27394757    -0.15400
F860        F  0.44542877  0.06933666  0.33164495    -0.13000
C861        C  0.53126474  0.82699693  0.35349437     0.25000
C862        C  0.49482947  0.83601368  0.37289319    -0.23100
C863        C  0.45950950  0.81623633  0.36095884     0.19900
C864        C  0.45979763  0.79102922  0.32725637     0.24900
C865        C  0.49573155  0.78438429  0.30578957    -0.23100
C866        C  0.53170340  0.80146609  0.32008668     0.19800
F867        F  0.56662182  0.79631705  0.29935299    -0.13000
F868        F  0.56610753  0.84409730  0.36596899    -0.15400
F869        F  0.42441406  0.77640753  0.31327646    -0.15400
F870        F  0.42428770  0.82335085  0.38050612    -0.13000
C871        C  0.46168368  0.08817652  0.69242574     0.25000
C872        C  0.45843223  0.09671507  0.65096694    -0.23100
C873        C  0.45233720  0.13748784  0.63995026     0.19900
C874        C  0.45321138  0.16857185  0.66859217     0.24900
C875        C  0.45990800  0.16034835  0.70932773    -0.23100
C876        C  0.46277450  0.11955921  0.72102946     0.19800
F877        F  0.47030531  0.11028835  0.75994069    -0.13000
F878        F  0.46644836  0.04972255  0.70532264    -0.15400
F879        F  0.45114778  0.20731394  0.65585182    -0.15400
F880        F  0.44747401  0.14797180  0.60092301    -0.13000
C881        C  0.44641494  0.80653302  0.65332198     0.25000
C882        C  0.48150870  0.81921777  0.63311825    -0.23100
C883        C  0.51626504  0.79529752  0.63639595     0.19900
C884        C  0.51708581  0.76209070  0.66263450     0.24900
C885        C  0.48330409  0.75230406  0.68668783    -0.23100
C886        C  0.44727423  0.77342789  0.67975463     0.19800
F887        F  0.41416296  0.76509540  0.70237649    -0.13000
F888        F  0.41141682  0.82667685  0.64805864    -0.15400
F889        F  0.55256885  0.74292725  0.66882082    -0.15400
F890        F  0.55032288  0.80565596  0.61609918    -0.13000
C891        C  0.34089798  0.99152014  0.35581966     0.25000
C892        C  0.35900314  0.95553200  0.36712295    -0.23100
C893        C  0.35803692  0.92195543  0.34138998     0.19900
C894        C  0.33810137  0.92452501  0.30457771     0.24900
C895        C  0.32111627  0.96122671  0.29299204    -0.23100
C896        C  0.32305669  0.99465809  0.31866241     0.19800
F897        F  0.30858211  0.03090821  0.30702414    -0.13000
F898        F  0.34319867  0.02457536  0.37963410    -0.15400
F899        F  0.33606050  0.89194803  0.28015440    -0.15400
F900        F  0.37716187  0.88740370  0.35148005    -0.13000
C901        C  0.63116673  0.00357115  0.64719462     0.25000
C902        C  0.60647527  0.96952889  0.64564700    -0.23100
C903        C  0.61922802  0.93280469  0.66186932     0.19900
C904        C  0.65775900  0.92971606  0.67782308     0.24900
C905        C  0.68355705  0.96310782  0.67653742    -0.23100
C906        C  0.66962373  0.00038629  0.66243529     0.19800
F907        F  0.69337475  0.03369203  0.66350067    -0.13000
F908        F  0.61879747  0.03916699  0.63141489    -0.15400
F909        F  0.67035750  0.89417374  0.69334177    -0.15400
F910        F  0.59565263  0.89949078  0.65929259    -0.13000
C911        C  0.27428877  0.91070314  0.65433344     0.25000
C912        C  0.28614528  0.91033911  0.69501849    -0.23100
C913        C  0.32555531  0.89658543  0.70174270     0.19900
C914        C  0.35520643  0.90451804  0.67275991     0.24900
C915        C  0.34408068  0.91960309  0.63466191    -0.23100
C916        C  0.30307193  0.91836578  0.62458078     0.19800
F917        F  0.29041511  0.92727436  0.58699747    -0.13000
F918        F  0.23495274  0.91022585  0.64380221    -0.15400
F919        F  0.39436614  0.89956507  0.68293152    -0.15400
F920        F  0.33656786  0.88306178  0.73851828    -0.13000
C921        C  0.67349889  0.04175630  0.18339900     0.25000
C922        C  0.70881758  0.01826109  0.18416243    -0.23100
C923        C  0.71997995  0.99753622  0.14907790     0.19900
C924        C  0.69424426  0.99701460  0.11560756     0.24900
C925        C  0.65641972  0.01654770  0.11701472    -0.23100
C926        C  0.64716444  0.03997790  0.15091939     0.19800
F927        F  0.61219085  0.06094862  0.15302293    -0.13000
F928        F  0.66313029  0.06462379  0.21557488    -0.15400
F929        F  0.70538384  0.97544558  0.08282769    -0.15400
F930        F  0.75438471  0.97560782  0.14812632    -0.13000
C931        C  0.68490205  0.00364599  0.35962176     0.25000
C932        C  0.68338832  0.97967263  0.32496046    -0.23100
C933        C  0.65160416  0.95214110  0.32023694     0.19900
C934        C  0.62107754  0.94968200  0.34915425     0.24900
C935        C  0.62228446  0.97425906  0.38341779    -0.23100
C936        C  0.65483252  0.00064183  0.38881282     0.19800
F937        F  0.65631918  0.02526823  0.42123391    -0.13000
F938        F  0.71425004  0.03174664  0.36411186    -0.15400
F939        F  0.59037968  0.92328231  0.34374078    -0.15400
F940        F  0.64995318  0.92796010  0.28747638    -0.13000
C941        C  0.29211652  0.79012813  0.51988855     0.25000
C942        C  0.29836993  0.75831508  0.49251780    -0.23100
C943        C  0.33529213  0.75681450  0.47172571     0.19900
C944        C  0.36430600  0.78733297  0.47661057     0.24900
C945        C  0.35625761  0.82108957  0.50105967    -0.23100
C946        C  0.32034292  0.82140542  0.52357909     0.19800
F947        F  0.31188744  0.85275356  0.54825055    -0.13000
F948        F  0.25632269  0.79345145  0.53947502    -0.15400
F949        F  0.39888528  0.78545623  0.45480192    -0.15400
F950        F  0.34151233  0.72796910  0.44359114    -0.13000
C951        C  0.65981399  0.78344227  0.49553866     0.25000
C952        C  0.69411933  0.79494029  0.51705301    -0.23100
C953        C  0.69210781  0.82932789  0.54171523     0.19900
C954        C  0.65788577  0.85368291  0.54187104     0.24900
C955        C  0.62459084  0.84386849  0.51790757    -0.23100
C956        C  0.62522118  0.80755292  0.49612304     0.19800
F957        F  0.59356465  0.79687512  0.47293748    -0.13000
F958        F  0.66102490  0.75082953  0.47111034    -0.15400
F959        F  0.65774150  0.88745827  0.56479584    -0.15400
F960        F  0.72429407  0.84064150  0.56397013    -0.13000
C961        C  0.62924442  0.17793873  0.48674791     0.25000
C962        C  0.66799315  0.17223782  0.50247118    -0.23100
C963        C  0.67491943  0.13776104  0.52607736     0.19900
C964        C  0.64496444  0.10826938  0.53132339     0.24900
C965        C  0.60690715  0.11255884  0.51350098    -0.23100
C966        C  0.59908007  0.14848246  0.49220373     0.19800
F967        F  0.56314075  0.15389244  0.47412747    -0.13000
F968        F  0.62142037  0.21061328  0.46358909    -0.15400
F969        F  0.65360023  0.07497839  0.55324140    -0.15400
F970        F  0.71157594  0.13179938  0.54272837    -0.13000
C971        C  0.30178557  0.09904431  0.49498068     0.25000
C972        C  0.34286931  0.10366933  0.50452708    -0.23100
C973        C  0.35635055  0.14349934  0.51300950     0.19900
C974        C  0.32951414  0.17602198  0.51534235     0.24900
C975        C  0.28824829  0.17081589  0.50872503    -0.23100
C976        C  0.27503197  0.13227763  0.49663606     0.19800
F977        F  0.23568270  0.12643246  0.48809640    -0.13000
F978        F  0.28720136  0.06230750  0.48486240    -0.15400
F979        F  0.34357753  0.21248251  0.52721619    -0.15400
F980        F  0.39552110  0.15133337  0.52137344    -0.13000
C981        C  0.86325861  0.99053273  0.67525360     0.25000
C982        C  0.82425713  0.00363657  0.66628470    -0.23100
C983        C  0.81765509  0.02344503  0.62948185     0.19900
C984        C  0.84869775  0.02749847  0.60118478     0.24900
C985        C  0.88734850  0.01220451  0.60905647    -0.23100
C986        C  0.89455744  0.99512656  0.64713273     0.19800
F987        F  0.93148882  0.98116376  0.65666341    -0.13000
F988        F  0.87051853  0.97091450  0.71020296    -0.15400
F989        F  0.84072669  0.04632666  0.56594689    -0.15400
F990        F  0.78065142  0.03798882  0.62038664    -0.13000
C991        C  0.14775533  0.03572240  0.64660154     0.25000
C992        C  0.15895466  0.02786470  0.60621603    -0.23100
C993        C  0.20037793  0.02115104  0.59849566     0.19900
C994        C  0.22886117  0.02136575  0.62977648     0.24900
C995        C  0.21711037  0.02670421  0.67019270    -0.23100
C996        C  0.17612725  0.03425052  0.67793076     0.19800
F997        F  0.16286617  0.03693733  0.71642563    -0.13000
F998        F  0.10872274  0.04257274  0.65654670    -0.15400
F999        F  0.26773428  0.01230663  0.62093926    -0.15400
F1000       F  0.21342018  0.01190656  0.56095168    -0.13000
C1001       C  0.21056629  0.04819157  0.29266273     0.25000
C1002       C  0.20397699  0.02185415  0.26010380    -0.23100
C1003       C  0.16854392  0.99872411  0.26052756     0.19900
C1004       C  0.14256173  0.99902537  0.29394830     0.24900
C1005       C  0.15157781  0.02193551  0.32853342    -0.23100
C1006       C  0.18529375  0.04755904  0.32687633     0.19800
F1007       F  0.19416408  0.07159773  0.35848073    -0.13000
F1008       F  0.24370652  0.07204313  0.29279778    -0.15400
F1009       F  0.10985535  0.97445814  0.29346454    -0.15400
F1010       F  0.16124995  0.97253112  0.23021164    -0.13000
C1011       C  0.84180569  0.96555231  0.30188704     0.25000
C1012       C  0.82492427  0.00062904  0.28515061    -0.23100
C1013       C  0.84381639  0.03783182  0.29254391     0.19900
C1014       C  0.87686796  0.04011309  0.31868298     0.24900
C1015       C  0.89085733  0.00539033  0.33837267    -0.23100
C1016       C  0.87414087  0.96797453  0.32850395     0.19800
F1017       F  0.88809665  0.93387190  0.34598961    -0.13000
F1018       F  0.82454862  0.92914870  0.29508481    -0.15400
F1019       F  0.89366775  0.07648826  0.32662563    -0.15400
F1020       F  0.82816168  0.07226673  0.27731050    -0.13000
C1021       C  0.16529874  0.86751914  0.42225429     0.25000
C1022       C  0.15250264  0.87814701  0.46105460    -0.23100
C1023       C  0.15485148  0.85012120  0.49232293     0.19900
C1024       C  0.16835963  0.81146986  0.48482612     0.24900
C1025       C  0.18001364  0.80012176  0.44584391    -0.23100
C1026       C  0.17942164  0.82857219  0.41471834     0.19800
F1027       F  0.19209213  0.81844743  0.37729562    -0.13000
F1028       F  0.16176003  0.89399695  0.39144145    -0.15400
F1029       F  0.17132886  0.78531214  0.51602668    -0.15400
F1030       F  0.14219930  0.85983126  0.52989990    -0.13000
C1031       C  0.90023830  0.84167347  0.49985043     0.25000
C1032       C  0.89544166  0.87579225  0.47551873    -0.23100
C1033       C  0.86134436  0.87950937  0.45116961     0.19900
C1034       C  0.83172517  0.84990627  0.45199796     0.24900
C1035       C  0.83569847  0.81662395  0.47759803    -0.23100
C1036       C  0.87039136  0.81237030  0.50108186     0.19800
F1037       F  0.87421375  0.78114484  0.52712091    -0.13000
F1038       F  0.93259276  0.83786726  0.52423364    -0.15400
F1039       F  0.79887947  0.85402120  0.42836537    -0.15400
F1040       F  0.85668125  0.91187302  0.42672233    -0.13000
C1041       C  0.87623724  0.17223890  0.46556195     0.25000
C1042       C  0.87858941  0.13451231  0.44742713    -0.23100
C1043       C  0.84557384  0.12015230  0.42506877     0.19900
C1044       C  0.80964297  0.14197935  0.42369479     0.24900
C1045       C  0.80617966  0.17828565  0.44481773    -0.23100
C1046       C  0.84040376  0.19367876  0.46477517     0.19800
F1047       F  0.83860184  0.22799669  0.48663332    -0.13000
F1048       F  0.90739165  0.18678450  0.48735497    -0.15400
F1049       F  0.77800390  0.12713204  0.40278123    -0.15400
F1050       F  0.84770931  0.08435786  0.40558021    -0.13000
C1051       C  0.17388571  0.11845579  0.55321432     0.25000
C1052       C  0.13760282  0.13459393  0.53862740    -0.23100
C1053       C  0.12321017  0.17030741  0.55616946     0.19900
C1054       C  0.14682617  0.19135289  0.58358538     0.24900
C1055       C  0.18714547  0.17942666  0.59034835    -0.23100
C1056       C  0.19657600  0.13911159  0.58132342     0.19800
F1057       F  0.23115641  0.12192646  0.59428207    -0.13000
F1058       F  0.18956506  0.08407779  0.53813363    -0.15400
F1059       F  0.13193804  0.22593281  0.59934437    -0.15400
F1060       F  0.08767177  0.18658460  0.54497319    -0.13000
C1061       C  0.01088452  0.71059112  0.14829211     0.25000
C1062       C  0.03577464  0.70261527  0.18112151    -0.23100
C1063       C  0.06165356  0.66902572  0.17925573     0.19900
C1064       C  0.05921603  0.64149253  0.14756456     0.24900
C1065       C  0.03139146  0.64730806  0.11653295    -0.23100
C1066       C  0.00855585  0.68315303  0.11631844     0.19800
F1067       F  0.98166209  0.69018723  0.08669783    -0.13000
F1068       F  0.98604319  0.74295616  0.14902310    -0.15400
F1069       F  0.08337036  0.60857829  0.14782352    -0.15400
F1070       F  0.08640921  0.66072789  0.21043183    -0.13000
C1071       C  0.05524204  0.80805715  0.32956408     0.25000
C1072       C  0.03084881  0.80682719  0.29519051    -0.23100
C1073       C  0.00834459  0.84115863  0.28518488     0.19900
C1074       C  0.00879555  0.87533577  0.31013840     0.24900
C1075       C  0.03129560  0.87541495  0.34585931    -0.23100
C1076       C  0.05529992  0.84174353  0.35464023     0.19800
F1077       F  0.07816784  0.84095400  0.38822949    -0.13000
F1078       F  0.07723588  0.77538489  0.34024791    -0.15400
F1079       F  0.98492260  0.90708492  0.30093162    -0.15400
F1080       F  0.98348034  0.84039664  0.25308371    -0.13000
C1081       C  0.04550724  0.32004324  0.81180974     0.25000
C1082       C  0.03049107  0.32751427  0.77328950    -0.23100
C1083       C  0.02305711  0.36798565  0.76243375     0.19900
C1084       C  0.02759967  0.39963827  0.79024741     0.24900
C1085       C  0.03883584  0.39170773  0.83021482    -0.23100
C1086       C  0.04979347  0.35153287  0.83977643     0.19800
F1087       F  0.06303359  0.34204786  0.87699905    -0.13000
F1088       F  0.05268838  0.28164004  0.82366072    -0.15400
F1089       F  0.01812588  0.43759714  0.77864318    -0.15400
F1090       F  0.00783002  0.37645878  0.72569694    -0.13000
C1091       C  0.01678975  0.19215221  0.59892792     0.25000
C1092       C  0.02754331  0.15180682  0.60669559    -0.23100
C1093       C  0.03886797  0.14214622  0.64661957     0.19900
C1094       C  0.03723617  0.17110081  0.67763235     0.24900
C1095       C  0.02507926  0.21080090  0.66982405    -0.23100
C1096       C  0.01610423  0.22107784  0.62977594     0.19800
F1097       F  0.00325851  0.25882935  0.62109210    -0.13000
F1098       F  0.00473185  0.20348495  0.56178822    -0.15400
F1099       F  0.04497259  0.15958424  0.71588817    -0.15400
F1100       F  0.04996278  0.10412992  0.65638880    -0.13000
C1101       C  0.05117580  0.71516402  0.80702743     0.25000
C1102       C  0.01504129  0.73704237  0.80397517    -0.23100
C1103       C  0.98376501  0.72837923  0.83146676     0.19900
C1104       C  0.98645844  0.69507808  0.85721863     0.24900
C1105       C  0.02059447  0.67016153  0.85630426    -0.23100
C1106       C  0.05380406  0.68177320  0.83273449     0.19800
F1107       F  0.08830571  0.66007501  0.83365750    -0.13000
F1108       F  0.08176882  0.72252107  0.78080975    -0.15400
F1109       F  0.95446391  0.68533082  0.88091965    -0.15400
F1110       F  0.94839887  0.74861955  0.82924992    -0.13000
C1111       C  0.00224242  0.85898052  0.68009176     0.25000
C1112       C  0.02387973  0.82302705  0.67552667    -0.23100
C1113       C  0.04951543  0.81901461  0.64185424     0.19900
C1114       C  0.05108365  0.84890434  0.61202185     0.24900
C1115       C  0.02764242  0.88401138  0.61538918    -0.23100
C1116       C  0.00449724  0.88928543  0.65065177     0.19800
F1117       F  0.98189695  0.92273355  0.65555035    -0.13000
F1118       F  0.97638714  0.86345139  0.71147125    -0.15400
F1119       F  0.07527895  0.84322493  0.57958400    -0.15400
F1120       F  0.07174353  0.78510343  0.63696192    -0.13000
C1121       C  0.15106971  0.59425341  0.48018568     0.25000
C1122       C  0.11617372  0.60227492  0.50326931    -0.23100
C1123       C  0.11231942  0.64061464  0.52079265     0.19900
C1124       C  0.14203579  0.67021337  0.51488161     0.24900
C1125       C  0.17618282  0.66270738  0.49067156    -0.23100
C1126       C  0.18044912  0.62426690  0.47360631     0.19800
F1127       F  0.21149934  0.61672777  0.44805325    -0.13000
F1128       F  0.15536122  0.55828798  0.46145716    -0.15400
F1129       F  0.13637143  0.70719674  0.53116564    -0.15400
F1130       F  0.07925715  0.64984440  0.54307502    -0.13000
C1131       C  0.82252941  0.31593636  0.52960006     0.25000
C1132       C  0.82738824  0.34887043  0.50349871    -0.23100
C1133       C  0.79640625  0.35711766  0.47595356     0.19900
C1134       C  0.76342200  0.33094100  0.47202738     0.24900
C1135       C  0.75986368  0.29649416  0.49635928    -0.23100
C1136       C  0.78857654  0.29073424  0.52681127     0.19800
F1137       F  0.78646251  0.25744166  0.55043010    -0.13000
F1138       F  0.85115328  0.30736990  0.55703186    -0.15400
F1139       F  0.73720360  0.33684198  0.44155745    -0.15400
F1140       F  0.79969094  0.38889186  0.45046208    -0.13000
C1141       C  0.17966102  0.32286274  0.53218491     0.25000
C1142       C  0.17823830  0.28357627  0.51667469    -0.23100
C1143       C  0.14220102  0.27098985  0.49817181     0.19900
C1144       C  0.10815120  0.29666358  0.49665428     0.24900
C1145       C  0.10952220  0.33572168  0.51323674    -0.23100
C1146       C  0.14613816  0.34824566  0.53078977     0.19800
F1147       F  0.14915526  0.38468756  0.54892642    -0.13000
F1148       F  0.21298500  0.33572819  0.55178478    -0.15400
F1149       F  0.07383801  0.28310475  0.47944504    -0.15400
F1150       F  0.13919048  0.23302862  0.48357246    -0.13000
C1151       C  0.80223727  0.65704736  0.46332315     0.25000
C1152       C  0.79172509  0.67793603  0.49853453    -0.23100
C1153       C  0.80565393  0.66373511  0.53562895     0.19900
C1154       C  0.83177318  0.63075309  0.53719536     0.24900
C1155       C  0.84457087  0.61185906  0.50171614    -0.23100
C1156       C  0.82847719  0.62419755  0.46492158     0.19800
F1157       F  0.84015403  0.60603480  0.43032703    -0.13000
F1158       F  0.78993958  0.67084348  0.42707135    -0.15400
F1159       F  0.84595217  0.61835541  0.57316895    -0.15400
F1160       F  0.79712502  0.68422625  0.56984384    -0.13000
C1161       C  0.10790948  0.46672254  0.33769836     0.25000
C1162       C  0.11667367  0.47091424  0.37879633    -0.23100
C1163       C  0.15709545  0.47916943  0.38934531     0.19900
C1164       C  0.18653357  0.48716539  0.35965309     0.24900
C1165       C  0.17637641  0.48712086  0.31876647    -0.23100
C1166       C  0.13725216  0.47442232  0.30833427     0.19800
F1167       F  0.12681755  0.47025180  0.26930519    -0.13000
F1168       F  0.07055218  0.45586754  0.32545402    -0.15400
F1169       F  0.22440864  0.49699448  0.37106214    -0.15400
F1170       F  0.16805676  0.48112597  0.42841555    -0.13000
C1171       C  0.81523733  0.50322727  0.36620956     0.25000
C1172       C  0.84577591  0.47406791  0.36899922    -0.23100
C1173       C  0.84806768  0.44370557  0.33987806     0.19900
C1174       C  0.82158154  0.44356715  0.30750600     0.24900
C1175       C  0.79306133  0.47451730  0.30285445    -0.23100
C1176       C  0.78938083  0.50376495  0.33304453     0.19800
F1177       F  0.76335905  0.53484828  0.32854932    -0.13000
F1178       F  0.81260967  0.53305693  0.39384610    -0.15400
F1179       F  0.82636574  0.41541087  0.27837846    -0.15400
F1180       F  0.87689715  0.41488586  0.34206692    -0.13000
C1181       C  0.14950939  0.46155970  0.63689547     0.25000
C1182       C  0.10811308  0.46445435  0.64767820    -0.23100
C1183       C  0.09910869  0.46832314  0.68904559     0.19900
C1184       C  0.13000863  0.47180008  0.71781132     0.24900
C1185       C  0.17101683  0.47088196  0.70656828    -0.23100
C1186       C  0.18020733  0.46504752  0.66578114     0.19800
F1187       F  0.21920058  0.46582412  0.65334781    -0.13000
F1188       F  0.16086321  0.45731551  0.59794689    -0.15400
F1189       F  0.11981003  0.47941051  0.75656546    -0.15400
F1190       F  0.06035402  0.47114949  0.70175104    -0.13000
C1191       C  0.78378152  0.45080695  0.68242655     0.25000
C1192       C  0.76266365  0.48713625  0.68807174    -0.23100
C1193       C  0.77329970  0.52017903  0.66336611     0.19900
C1194       C  0.80631692  0.51793388  0.63674389     0.24900
C1195       C  0.82938033  0.48256790  0.63383200    -0.23100
C1196       C  0.81680155  0.44862824  0.65579489     0.19800
F1197       F  0.83734899  0.41358035  0.65240444    -0.13000
F1198       F  0.77562437  0.41882118  0.70652138    -0.15400
F1199       F  0.81748511  0.55126859  0.61585683    -0.15400
F1200       F  0.75502729  0.55628672  0.66898891    -0.13000
C1201       C  0.01368436  0.60153635  0.34394081     0.25000
C1202       C  0.98389008  0.60491159  0.37365630    -0.23100
C1203       C  0.95763639  0.63793568  0.37374546     0.19900
C1204       C  0.96162304  0.66782904  0.34457195     0.24900
C1205       C  0.99218812  0.66504556  0.31541754    -0.23100
C1206       C  0.01790651  0.63141484  0.31506362     0.19800
F1207       F  0.04852814  0.62844148  0.28802524    -0.13000
F1208       F  0.04012725  0.57039830  0.34420219    -0.15400
F1209       F  0.93581027  0.69944146  0.34478228    -0.15400
F1210       F  0.92807707  0.64100399  0.40189943    -0.13000
C1211       C  0.91397111  0.35885654  0.67716946     0.25000
C1212       C  0.92546698  0.34521567  0.63859525    -0.23100
C1213       C  0.91772146  0.30458617  0.62922774     0.19900
C1214       C  0.90701622  0.27777729  0.65984248     0.24900
C1215       C  0.91197079  0.28981871  0.70010236    -0.23100
C1216       C  0.90427940  0.33092003  0.70713950     0.19800
F1217       F  0.89409523  0.34429301  0.74429010    -0.13000
F1218       F  0.91362772  0.39860635  0.68654538    -0.15400
F1219       F  0.89835384  0.23905533  0.65033404    -0.15400
F1220       F  0.92228457  0.29023495  0.59138913    -0.13000
C1221       C  0.94610211  0.64313379  0.62717940     0.25000
C1222       C  0.97081202  0.60998225  0.63591119    -0.23100
C1223       C  0.99819807  0.61190464  0.66745835     0.19900
C1224       C  0.00218076  0.64746864  0.68895667     0.24900
C1225       C  0.97841981  0.68117299  0.67921817    -0.23100
C1226       C  0.94979408  0.67856114  0.64887001     0.19800
F1227       F  0.92615267  0.71052761  0.63976112    -0.13000
F1228       F  0.91960169  0.64166536  0.59646201    -0.15400
F1229       F  0.03092147  0.64980552  0.71764612    -0.15400
F1230       F  0.02337761  0.58070983  0.67510917    -0.13000
C1231       C  0.01203697  0.30585866  0.11968655     0.25000
C1232       C  0.02349649  0.31314412  0.15960171    -0.23100
C1233       C  0.04368949  0.34947707  0.16792968     0.19900
C1234       C  0.04830309  0.37952558  0.13847718     0.24900
C1235       C  0.03412581  0.37372087  0.09909445    -0.23100
C1236       C  0.01810220  0.33538038  0.08961304     0.19800
F1237       F  0.00592891  0.32717678  0.05174301    -0.13000
F1238       F  0.99242641  0.27130324  0.11030085    -0.15400
F1239       F  0.06588104  0.41480506  0.14901379    -0.15400
F1240       F  0.05694925  0.35687607  0.20560959    -0.13000
C1241       C  0.00390150  0.15879570  0.26051477     0.25000
C1242       C  0.02125222  0.19720290  0.26318970    -0.23100
C1243       C  0.04188021  0.20720781  0.29878451     0.19900
C1244       C  0.04220316  0.18087093  0.33191052     0.24900
C1245       C  0.02332302  0.14300140  0.32984497    -0.23100
C1246       C  0.00531365  0.13186753  0.29306381     0.19800
F1247       F  0.98618120  0.09593081  0.28942650    -0.13000
F1248       F  0.98199194  0.14887659  0.22776223    -0.15400
F1249       F  0.05990254  0.19307016  0.36639846    -0.15400
F1250       F  0.05779350  0.24460789  0.30306431    -0.13000
C1251       C  0.99957714  0.32980475  0.30505338     0.25000
C1252       C  0.96301795  0.31347628  0.29162436    -0.23100
C1253       C  0.93009105  0.31100080  0.31827167     0.19900
C1254       C  0.93309323  0.32722224  0.35696670     0.24900
C1255       C  0.96934408  0.34496876  0.36933533    -0.23100
C1256       C  0.00258296  0.34554215  0.34334529     0.19800
F1257       F  0.03794632  0.36230494  0.35496283    -0.13000
F1258       F  0.03323307  0.32843457  0.28175620    -0.15400
F1259       F  0.90048955  0.32690322  0.38172509    -0.15400
F1260       F  0.89557898  0.29242350  0.30697335    -0.13000
loop_ 
_geom_bond_atom_site_label_1 
_geom_bond_atom_site_label_2 
_geom_bond_distance 
_geom_bond_site_symmetry_2 
_ccdc_geom_bond_type 
C1            C2   1.426       .  A
C1            C6   1.394   1_455  A
C1         C1242   1.491       .  S
C2            C3   1.428       .  A
C2            H7   1.082       .  S
C3            C4   1.408   1_455  A
C3         C1232   1.504       .  S
C4            C5   1.401       .  A
C4            H8   1.084       .  S
C5            C6   1.384       .  A
C5         C1252   1.469       .  S
C6            H9   1.087       .  S
O10          C21   1.281       .  A
O10         Eu46   2.395       .  S
O11          C22   1.289       .  A
O11         Eu45   2.438       .  S
O12          C23   1.306       .  A
O12         Eu18   2.546   1_455  S
O13          C24   1.303       .  A
O13         Eu18   2.526       .  S
O14          C24   1.287       .  A
O14         Eu48   2.439       .  S
O15          C23   1.288       .  A
O15         Eu47   2.434       .  S
O16          C22   1.293       .  A
O16         Eu18   2.461       .  S
O17          C21   1.295       .  A
O17         Eu18   2.489       .  S
Eu18         O28   2.362       .  S
Eu18         O20   2.366   1_655  S
Eu18         O19   2.356       .  S
Eu18         O26   2.389   1_655  S
O19         Eu48   2.343       .  S
O19         Eu45   2.352       .  S
O20         Eu46   2.353   1_455  S
O20         Eu47   2.363       .  S
C21        C1255   1.457       .  S
C22        C1212   1.484       .  S
C23        C1145   1.511       .  S
C24        C1132   1.495       .  S
H25          O26   0.966       .  S
O26         Eu47   2.381       .  S
O26         Eu45   2.377   1_455  S
H27          O28   0.965       .  S
O28         Eu46   2.353       .  S
O28         Eu48   2.355       .  S
O29          C52   1.291       .  A
O29         Eu45   2.460       .  S
O30          C53   1.287       .  A
O30         Eu46   2.431       .  S
O31          C54   1.294       .  A
O31         Eu47   2.475       .  S
O32          C55   1.288       .  A
O32         Eu48   2.451       .  S
O33          C56   1.289       .  A
O33         Eu48   2.455       .  S
O34          C57   1.293       .  A
O34         Eu47   2.476       .  S
O35          C58   1.297       .  A
O35         Eu49   2.487   1_455  S
O36          C59   1.294       .  A
O36         Eu49   2.484       .  S
O37          C58   1.295       .  A
O37         Eu47   2.483       .  S
O38          C59   1.286       .  A
O38         Eu48   2.443       .  S
O39          C54   1.305       .  A
O39         Eu45   2.538   1_455  S
O40          C57   1.296       .  A
O40         Eu46   2.482   1_455  S
O41          C56   1.294       .  A
O41         Eu46   2.474       .  S
O42          C55   1.303       .  A
O42         Eu45   2.526       .  S
O43          C52   1.282       .  A
O43         Eu49   2.398       .  S
O44          C53   1.287       .  A
O44         Eu49   2.435       .  S
Eu45         O63   2.362       .  S
Eu45         O51   2.362   1_655  S
Eu46         O50   2.346       .  S
Eu46         O61   2.336   1_655  S
Eu47         O61   2.349       .  S
Eu47         O51   2.355       .  S
Eu48         O50   2.347       .  S
Eu48         O63   2.350       .  S
Eu49         O50   2.346       .  S
Eu49         O61   2.339   1_655  S
Eu49         O63   2.351       .  S
Eu49         O51   2.365   1_655  S
C52        C1222   1.451       .  S
C53        C1202   1.456       .  S
C54        C1182   1.527       .  S
C55        C1195   1.493       .  S
C56        C1172   1.479       .  S
C57        C1162   1.506       .  S
C58        C1122   1.500       .  S
C59        C1155   1.472       .  S
H60          O61   0.965       .  S
H62          O63   0.965       .  S
C64          C65   1.420       .  A
C64          C69   1.391   1_455  A
C64        C1102   1.480       .  S
C65          C66   1.424       .  A
C65          H70   1.082       .  S
C66          C67   1.404   1_455  A
C66        C1112   1.494       .  S
C67          C68   1.394       .  A
C67          H71   1.084       .  S
C68          C69   1.381       .  A
C68        C1225   1.460       .  S
C69          H72   1.087       .  S
C73          C74   1.427       .  A
C73          C78   1.400   1_455  A
C73        C1095   1.505       .  S
C74          C75   1.427       .  A
C74          H79   1.082       .  S
C75          C76   1.401   1_455  A
C75        C1082   1.505       .  S
C76          C77   1.406       .  A
C76          H80   1.079       .  S
C77          C78   1.404       .  A
C77        C1215   1.513       .  S
C78          H81   1.079       .  S
C82          C83   1.419       .  A
C82          C87   1.396       .  A
C82        C1062   1.486       .  S
C83          C84   1.422       .  A
C83          H88   1.083       .  S
C84          C85   1.403       .  A
C84        C1072   1.490       .  S
C85          C86   1.393   1_455  A
C85          H89   1.085       .  S
C86          C87   1.388   1_655  A
C86        C1205   1.469       .  S
C87          H90   1.086       .  S
O91         C102   1.287       .  A
O91        Eu127   2.440       .  S
O92         C103   1.287       .  A
O92        Eu126   2.464       .  S
O93         C104   1.298       .  A
O93         Eu99   2.497   1_655  S
O94         C105   1.283       .  A
O94         Eu99   2.444       .  S
O95         C105   1.279       .  A
O95        Eu129   2.414       .  S
O96         C104   1.281       .  A
O96        Eu128   2.395       .  S
O97         C103   1.299       .  A
O97         Eu99   2.523       .  S
O98         C102   1.303       .  A
O98         Eu99   2.524       .  S
Eu99        O109   2.382       .  S
Eu99        O101   2.327   1_455  S
Eu99        O100   2.367       .  S
Eu99        O107   2.359   1_455  S
O100       Eu129   2.373       .  S
O100       Eu126   2.365       .  S
O101       Eu127   2.363   1_655  S
O101       Eu128   2.359       .  S
C102       C1245   1.504       .  S
C103       C1092   1.521       .  S
C104       C1042   1.471       .  S
C105       C1052   1.485       .  S
H106        O107   0.966       .  S
O107       Eu128   2.399       .  S
O107       Eu126   2.382   1_655  S
H108        O109   0.966       .  S
O109       Eu127   2.419       .  S
O109       Eu129   2.370       .  S
O110        C133   1.292       .  A
O110       Eu126   2.474   1_565  S
O111        C134   1.295       .  A
O111       Eu127   2.481   1_565  S
O112        C135   1.293       .  A
O112       Eu128   2.462       .  S
O113        C136   1.298       .  A
O113       Eu129   2.511       .  S
O114        C137   1.305       .  A
O114       Eu129   2.545       .  S
O115        C138   1.297       .  A
O115       Eu128   2.497       .  S
O116        C139   1.286       .  A
O116       Eu130   2.424   1_655  S
O117        C140   1.278       .  A
O117       Eu130   2.377       .  S
O118        C139   1.288       .  A
O118       Eu128   2.434   1_565  S
O119        C140   1.292       .  A
O119       Eu129   2.481   1_565  S
O120        C135   1.293       .  A
O120       Eu126   2.473   1_655  S
O121        C138   1.289       .  A
O121       Eu127   2.456   1_655  S
O122        C137   1.283       .  A
O122       Eu127   2.417       .  S
O123        C136   1.292       .  A
O123       Eu126   2.487       .  S
O124        C133   1.295       .  A
O124       Eu130   2.484       .  S
O125        C134   1.294       .  A
O125       Eu130   2.469       .  S
Eu126       O144   2.370   1_545  S
Eu126       O132   2.339   1_445  S
Eu127       O131   2.370   1_545  S
Eu127       O142   2.350   1_445  S
Eu128       O142   2.330   1_545  S
Eu128       O132   2.375   1_545  S
Eu129       O131   2.319   1_545  S
Eu129       O144   2.369   1_545  S
Eu130       O131   2.374       .  S
Eu130       O142   2.343   1_455  S
Eu130       O144   2.376       .  S
Eu130       O132   2.360   1_455  S
C133       C1115   1.500       .  S
C134       C1075   1.489       .  S
C135        C985   1.493       .  S
C136        C992   1.526       .  S
C137       C1005   1.503       .  S
C138       C1015   1.482       .  S
C139       C1032   1.457       .  S
C140       C1022   1.451       .  S
H141        O142   0.965       .  S
H143        O144   0.966       .  S
C145        C146   1.408       .  A
C145        C150   1.436       .  A
C145       C1142   1.503       .  S
C146        C147   1.395       .  A
C146        H151   1.083       .  S
C147        C148   1.401       .  A
C147       C1055   1.514       .  S
C148        C149   1.407       .  A
C148        H152   1.083       .  S
C149        C150   1.435       .  A
C149        C975   1.505       .  S
C150        H153   1.082       .  S
C154        C155   1.410       .  A
C154        C159   1.423       .  A
C154        C962   1.499       .  S
C155        C156   1.403       .  A
C155        H160   1.083       .  S
C156        C157   1.389       .  A
C156       C1045   1.484       .  S
C157        C158   1.394       .  A
C157        H161   1.086       .  S
C158        C159   1.420       .  A
C158       C1135   1.488       .  S
C159        H162   1.083       .  S
C163        C164   1.401       .  A
C163        C168   1.416       .  A
C163        C952   1.485       .  S
C164        C165   1.393       .  A
C164        H169   1.084       .  S
C165        C166   1.389       .  A
C165       C1035   1.464       .  S
C166        C167   1.396       .  A
C166        H170   1.085       .  S
C167        C168   1.413       .  A
C167       C1152   1.474       .  S
C168        H171   1.083       .  S
C172        C173   1.426       .  A
C172        C177   1.404       .  A
C172       C1125   1.497       .  S
C173        C174   1.424       .  A
C173        H178   1.082       .  S
C174        C175   1.394       .  A
C174        C942   1.490       .  S
C175        C176   1.386       .  A
C175        H179   1.087       .  S
C176        C177   1.397       .  A
C176       C1025   1.462       .  S
C177        H180   1.085       .  S
C181        C182   1.401       .  A
C181        C186   1.422   1_565  A
C181       C1012   1.491   1_565  S
C182        C183   1.392       .  A
C182        H187   1.085       .  S
C183        C184   1.391       .  A
C183        C932   1.475       .  S
C184        C185   1.404   1_565  A
C184        H188   1.084       .  S
C185        C186   1.423       .  A
C185        C922   1.498       .  S
C186        H189   1.083       .  S
O190        C201   1.284       .  A
O190       Eu226   2.420       .  S
O191        C202   1.291       .  A
O191       Eu225   2.461       .  S
O192        C203   1.293       .  A
O192       Eu198   2.469       .  S
O193        C204   1.295       .  A
O193       Eu198   2.478       .  S
O194        C204   1.286       .  A
O194       Eu228   2.428       .  S
O195        C203   1.284       .  A
O195       Eu227   2.415       .  S
O196        C202   1.301       .  A
O196       Eu198   2.507       .  S
O197        C201   1.311       .  A
O197       Eu198   2.573   1_545  S
Eu198       O208   2.368   1_565  S
Eu198       O200   2.360   1_565  S
Eu198       O199   2.358       .  S
Eu198       O206   2.373       .  S
O199       Eu228   2.339       .  S
O199       Eu225   2.347       .  S
O200       Eu226   2.361       .  S
O200       Eu227   2.362   1_545  S
C201        C972   1.525       .  S
C202        C945   1.496       .  S
C203        C892   1.449       .  S
C204        C915   1.486       .  S
H205        O206   0.965       .  S
O206       Eu227   2.358       .  S
O206       Eu225   2.354       .  S
H207        O208   0.966       .  S
O208       Eu226   2.386       .  S
O208       Eu228   2.383   1_545  S
O209        C232   1.292       .  A
O209       Eu225   2.470       .  S
O210        C233   1.294       .  A
O210       Eu226   2.483       .  S
O211        C234   1.297       .  A
O211       Eu227   2.497       .  S
O212        C235   1.303       .  A
O212       Eu228   2.537       .  S
O213        C236   1.301       .  A
O213       Eu228   2.512   1_545  S
O214        C237   1.303       .  A
O214       Eu227   2.520   1_545  S
O215        C238   1.289       .  A
O215       Eu229   2.445       .  S
O216        C239   1.283       .  A
O216       Eu229   2.404       .  S
O217        C238   1.290       .  A
O217       Eu227   2.450       .  S
O218        C239   1.286       .  A
O218       Eu228   2.437       .  S
O219        C234   1.285       .  A
O219       Eu225   2.435       .  S
O220        C237   1.295       .  A
O220       Eu226   2.484       .  S
O221        C236   1.296       .  A
O221       Eu226   2.482       .  S
O222        C235   1.285       .  A
O222       Eu225   2.436       .  S
O223        C232   1.292       .  A
O223       Eu229   2.458       .  S
O224        C233   1.296       .  A
O224       Eu229   2.488   1_545  S
Eu225       O243   2.348       .  S
Eu225       O231   2.352       .  S
Eu226       O230   2.350       .  S
Eu226       O241   2.353       .  S
Eu227       O241   2.349   1_565  S
Eu227       O231   2.348       .  S
Eu228       O230   2.376   1_565  S
Eu228       O243   2.356       .  S
Eu229       O230   2.352   1_565  S
Eu229       O241   2.337   1_565  S
Eu229       O243   2.364       .  S
Eu229       O231   2.349       .  S
C232        C955   1.485       .  S
C233        C965   1.503       .  S
C234        C862   1.474       .  S
C235        C882   1.493       .  S
C236        C872   1.519       .  S
C237        C852   1.516       .  S
C238        C935   1.469       .  S
C239        C902   1.438       .  S
H240        O241   0.966       .  S
H242        O243   0.966       .  S
C244        C245   1.402   1_545  A
C244        C249   1.433       .  A
C244        C842   1.516       .  S
C245        C246   1.408       .  A
C245        H250   1.080       .  S
C246        C247   1.400       .  A
C246        C912   1.510       .  S
C247        C248   1.399   1_565  A
C247        H251   1.080       .  S
C248        C249   1.433       .  A
C248        C995   1.508       .  S
C249        H252   1.082       .  S
C253        C254   1.404       .  A
C253        C258   1.419   1_565  A
C253        C982   1.488   1_565  S
C254        C255   1.393       .  A
C254        H259   1.084       .  S
C255        C256   1.381       .  A
C255        C905   1.454       .  S
C256        C257   1.393       .  A
C256        H260   1.087       .  S
C257        C258   1.414   1_565  A
C257        C832   1.474   1_565  S
C258        H261   1.083       .  S
C262        C263   1.406   1_545  A
C262        C267   1.429       .  A
C262        C822   1.503       .  S
C263        C264   1.394       .  A
C263        H268   1.084       .  S
C264        C265   1.386       .  A
C264        C895   1.462       .  S
C265        C266   1.395   1_565  A
C265        H269   1.087       .  S
C266        C267   1.426       .  A
C266       C1002   1.494       .  S
C267        H270   1.082       .  S
O271        C282   1.288       .  A
O271       Eu307   2.454   1_554  S
O272        C283   1.299       .  A
O272       Eu306   2.503   1_554  S
O273        C284   1.282       .  A
O273       Eu279   2.403       .  S
O274        C285   1.286       .  A
O274       Eu279   2.433   1_565  S
O275        C285   1.285       .  A
O275       Eu309   2.426   1_554  S
O276        C284   1.293       .  A
O276       Eu308   2.476   1_554  S
O277        C283   1.296       .  A
O277       Eu279   2.484       .  S
O278        C282   1.298       .  A
O278       Eu279   2.494       .  S
Eu279       O289   2.349   1_545  S
Eu279       O281   2.344       .  S
Eu279       O280   2.347   1_545  S
Eu279       O287   2.364       .  S
O280       Eu309   2.344   1_554  S
O280       Eu306   2.351   1_564  S
O281       Eu307   2.351   1_554  S
O281       Eu308   2.360   1_554  S
C282        C925   1.497       .  S
C283        C825   1.512       .  S
C284        C812   1.453       .  S
C285        C802   1.447       .  S
H286        O287   0.966       .  S
O287       Eu308   2.372   1_554  S
O287       Eu306   2.373   1_554  S
H288        O289   0.966       .  S
O289       Eu307   2.346   1_564  S
O289       Eu309   2.352   1_554  S
O290        C313   1.296       .  A
O290       Eu306   2.490       .  S
O291        C314   1.286       .  A
O291       Eu307   2.436       .  S
O292        C315   1.303       .  A
O292       Eu308   2.526       .  S
O293        C316   1.297       .  A
O293       Eu309   2.487       .  S
O294        C317   1.296       .  A
O294       Eu309   2.491       .  S
O295        C318   1.301       .  A
O295       Eu308   2.512       .  S
O296        C319   1.287       .  A
O296       Eu310   2.434       .  S
O297        C320   1.289       .  A
O297       Eu310   2.444   1_565  S
O298        C319   1.294       .  A
O298       Eu308   2.472       .  S
O299        C320   1.281       .  A
O299       Eu309   2.396       .  S
O300        C315   1.290       .  A
O300       Eu306   2.449       .  S
O301        C318   1.287       .  A
O301       Eu307   2.444       .  S
O302        C317   1.288       .  A
O302       Eu307   2.455   1_565  S
O303        C316   1.298       .  A
O303       Eu306   2.502   1_565  S
O304        C313   1.305       .  A
O304       Eu310   2.541       .  S
O305        C314   1.299       .  A
O305       Eu310   2.503       .  S
Eu306       O324   2.359   1_545  S
Eu306       O312   2.377       .  S
Eu307       O311   2.356   1_545  S
Eu307       O322   2.353       .  S
Eu308       O322   2.352       .  S
Eu308       O312   2.375       .  S
Eu309       O311   2.348       .  S
Eu309       O324   2.361       .  S
Eu310       O311   2.366   1_545  S
Eu310       O322   2.361       .  S
Eu310       O324   2.361   1_545  S
Eu310       O312   2.362       .  S
C313        C845   1.530       .  S
C314        C835   1.482       .  S
C315        C772   1.512       .  S
C316        C752   1.506       .  S
C317        C765   1.481       .  S
C318        C742   1.488       .  S
C319        C782   1.484       .  S
C320        C792   1.445       .  S
H321        O322   0.964       .  S
H323        O324   0.966       .  S
C325        C326   1.396       .  A
C325        C330   1.426       .  A
C325        C735   1.490       .  S
C326        C327   1.385       .  A
C326        H331   1.087       .  S
C327        C328   1.399       .  A
C327        C815   1.466       .  S
C328        C329   1.408       .  A
C328        H332   1.084       .  S
C329        C330   1.427       .  A
C329        C855   1.508       .  S
C330        H333   1.082       .  S
C334        C335   1.418       .  A
C334        C339   1.397       .  A
C334        C865   1.480       .  S
C335        C336   1.419       .  A
C335        H340   1.083       .  S
C336        C337   1.398       .  A
C336        C725   1.486       .  S
C337        C338   1.391       .  A
C337        H341   1.085       .  S
C338        C339   1.389       .  A
C338        C805   1.460       .  S
C339        H342   1.085       .  S
C343        C344   1.386       .  A
C343        C348   1.425       .  A
C343        C885   1.489       .  S
C344        C345   1.379       .  A
C344        H349   1.087       .  S
C345        C346   1.396       .  A
C345        C795   1.463       .  S
C346        C347   1.412       .  A
C346        H350   1.084       .  S
C347        C348   1.431       .  A
C347        C712   1.505       .  S
C348        H351   1.082       .  S
C352        C353   1.427       .  A
C352        C357   1.400       .  A
C352        C875   1.504       .  S
C353        C354   1.427       .  A
C353        H358   1.082       .  S
C354        C355   1.400       .  A
C354        C702   1.505       .  S
C355        C356   1.405       .  A
C355        H359   1.079       .  S
C356        C357   1.406       .  A
C356        C785   1.513       .  S
C357        H360   1.079       .  S
O361        C372   1.296       .  A
O361       Eu397   2.493   1_554  S
O362        C373   1.287       .  A
O362       Eu396   2.446   1_554  S
O363        C374   1.283       .  A
O363       Eu369   2.404       .  S
O364        C375   1.288       .  A
O364       Eu369   2.438   1_655  S
O365        C375   1.287       .  A
O365       Eu399   2.432   1_554  S
O366        C374   1.294       .  A
O366       Eu398   2.481   1_554  S
O367        C373   1.299       .  A
O367       Eu369   2.505       .  S
O368        C372   1.299       .  A
O368       Eu369   2.500       .  S
Eu369       O379   2.352   1_455  S
Eu369       O371   2.364       .  S
Eu369       O370   2.354   1_455  S
Eu369       O377   2.348       .  S
O370       Eu399   2.351   1_554  S
O370       Eu396   2.342   1_654  S
O371       Eu397   2.367   1_554  S
O371       Eu398   2.371   1_554  S
C372       C1235   1.513       .  S
C373       C1065   1.492       .  S
C374        C682   1.459       .  S
C375        C695   1.454       .  S
H376        O377   0.965       .  S
O377       Eu398   2.361   1_554  S
O377       Eu396   2.348   1_554  S
H378        O379   0.966       .  S
O379       Eu397   2.357   1_654  S
O379       Eu399   2.352   1_554  S
O380        C403   1.283       .  A
O380       Eu396   2.422       .  S
O381        C404   1.292       .  A
O381       Eu397   2.463       .  S
O382        C405   1.301       .  A
O382       Eu398   2.516       .  S
O383        C406   1.293       .  A
O383       Eu399   2.476       .  S
O384        C407   1.295       .  A
O384       Eu399   2.479       .  S
O385        C408   1.306       .  A
O385       Eu398   2.542       .  S
O386        C409   1.287       .  A
O386       Eu400   2.431       .  S
O387        C410   1.290       .  A
O387       Eu400   2.462   1_655  S
O388        C409   1.292       .  A
O388       Eu398   2.462       .  S
O389        C410   1.282       .  A
O389       Eu399   2.403       .  S
O390        C405   1.288       .  A
O390       Eu396   2.445       .  S
O391        C408   1.291       .  A
O391       Eu397   2.459       .  S
O392        C407   1.297       .  A
O392       Eu397   2.497   1_655  S
O393        C406   1.291       .  A
O393       Eu396   2.470   1_655  S
O394        C403   1.301       .  A
O394       Eu400   2.520       .  S
O395        C404   1.304       .  A
O395       Eu400   2.533       .  S
Eu396       O414   2.352   1_455  S
Eu396       O402   2.349       .  S
Eu397       O401   2.360   1_455  S
Eu397       O412   2.385       .  S
Eu398       O412   2.372       .  S
Eu398       O402   2.350       .  S
Eu399       O401   2.357       .  S
Eu399       O414   2.347       .  S
Eu400       O401   2.363   1_455  S
Eu400       O412   2.372       .  S
Eu400       O414   2.361   1_455  S
Eu400       O402   2.346       .  S
C403       C1105   1.480       .  S
C404       C1085   1.517       .  S
C405        C645   1.492       .  S
C406        C622   1.482       .  S
C407        C635   1.506       .  S
C408        C655   1.521       .  S
C409        C675   1.484       .  S
C410        C665   1.448       .  S
H411        O412   0.965       .  S
H413        O414   0.966       .  S
C415        C416   1.402       .  A
C415        C420   1.420       .  A
C415        C612   1.489       .  S
C416        C417   1.392       .  A
C416        H421   1.085       .  S
C417        C418   1.387       .  A
C417        C692   1.464       .  S
C418        C419   1.396       .  A
C418        H422   1.086       .  S
C419        C420   1.418       .  A
C419       C1175   1.481       .  S
C420        H423   1.083       .  S
C424        C425   1.422       .  A
C424        C429   1.410       .  A
C424       C1165   1.504       .  S
C425        C426   1.421       .  A
C425        H430   1.083       .  S
C426        C427   1.398       .  A
C426        C602   1.483       .  S
C427        C428   1.385       .  A
C427        H431   1.087       .  S
C428        C429   1.400       .  A
C428        C685   1.474       .  S
C429        H432   1.084       .  S
C433        C434   1.429       .  A
C433        C438   1.401       .  A
C433       C1185   1.507       .  S
C434        C435   1.427       .  A
C434        H439   1.082       .  S
C435        C436   1.398       .  A
C435        C595   1.508       .  S
C436        C437   1.408       .  A
C436        H440   1.080       .  S
C437        C438   1.407       .  A
C437        C672   1.513       .  S
C438        H441   1.081       .  S
C442        C443   1.389       .  A
C442        C447   1.431       .  A
C442       C1192   1.493       .  S
C443        C444   1.378       .  A
C443        H448   1.087       .  S
C444        C445   1.394       .  A
C444        C662   1.461       .  S
C445        C446   1.411       .  A
C445        H449   1.083       .  S
C446        C447   1.434       .  A
C446        C582   1.516       .  S
C447        H450   1.082       .  S
C451        C452   1.398   1_556  A
C451        C456   1.423       .  A
C451        C775   1.497       .  S
C452        C453   1.404       .  A
C452        H457   1.080       .  S
C453        C454   1.407       .  A
C453        C572   1.513       .  S
C454        C455   1.401   1_554  A
C454        H458   1.081       .  S
C455        C456   1.424       .  A
C455        C652   1.500       .  S
C456        H459   1.082       .  S
O460        C471   1.288       .  A
O460       Eu496   2.446       .  S
O461        C472   1.292       .  A
O461       Eu495   2.460       .  S
O462        C473   1.288       .  A
O462       Eu468   2.436       .  S
O463        C474   1.294       .  A
O463       Eu468   2.483       .  S
O464        C474   1.280       .  A
O464       Eu498   2.390       .  S
O465        C473   1.292       .  A
O465       Eu497   2.459       .  S
O466        C472   1.306       .  A
O466       Eu468   2.541   1_556  S
O467        C471   1.302       .  A
O467       Eu468   2.522       .  S
Eu468       O478   2.361       .  S
Eu468       O470   2.354       .  S
Eu468       O469   2.363   1_554  S
Eu468       O476   2.377   1_554  S
O469       Eu498   2.357   1_556  S
O469       Eu495   2.365       .  S
O470       Eu496   2.351       .  S
O470       Eu497   2.350       .  S
C471        C732   1.497       .  S
C472        C705   1.519       .  S
C473        C575   1.484       .  S
C474        C542   1.453       .  S
H475        O476   0.966       .  S
O476       Eu497   2.380   1_556  S
O476       Eu495   2.388       .  S
H477        O478   0.965       .  S
O478       Eu496   2.353       .  S
O478       Eu498   2.345       .  S
O479        C502   1.297       .  A
O479       Eu495   2.498       .  S
O480        C503   1.291       .  A
O480       Eu496   2.469       .  S
O481        C504   1.306       .  A
O481       Eu497   2.543   1_556  S
O482        C505   1.295       .  A
O482       Eu498   2.475   1_556  S
O483        C506   1.296       .  A
O483       Eu498   2.488       .  S
O484        C507   1.304       .  A
O484       Eu497   2.529       .  S
O485        C508   1.282       .  A
O485       Eu499   2.404       .  S
O486        C509   1.290       .  A
O486       Eu499   2.454       .  S
O487        C508   1.293       .  A
O487       Eu497   2.476       .  S
O488        C509   1.284       .  A
O488       Eu498   2.416       .  S
O489        C504   1.292       .  A
O489       Eu495   2.463       .  S
O490        C507   1.285       .  A
O490       Eu496   2.431       .  S
O491        C506   1.289       .  A
O491       Eu496   2.459       .  S
O492        C505   1.299       .  A
O492       Eu495   2.509       .  S
O493        C502   1.296       .  A
O493       Eu499   2.486   1_556  S
O494        C503   1.294       .  A
O494       Eu499   2.480       .  S
Eu495       O513   2.357       .  S
Eu495       O501   2.361       .  S
Eu496       O500   2.343       .  S
Eu496       O511   2.358       .  S
Eu497       O511   2.369       .  S
Eu497       O501   2.367   1_554  S
Eu498       O500   2.345       .  S
Eu498       O513   2.352   1_554  S
Eu499       O500   2.348       .  S
Eu499       O511   2.360       .  S
Eu499       O513   2.348   1_554  S
Eu499       O501   2.357   1_554  S
C502        C715   1.505       .  S
C503        C722   1.484       .  S
C504        C592   1.523       .  S
C505        C585   1.511       .  S
C506        C615   1.490       .  S
C507        C605   1.496       .  S
C508        C552   1.452       .  S
C509        C562   1.454       .  S
H510        O511   0.966       .  S
H512        O513   0.966       .  S
C514        C515   1.419       .  A
C514        C519   1.397       .  A
C514        C625   1.483       .  S
C515        C516   1.420       .  A
C515        H520   1.083       .  S
C516        C517   1.401   1_556  A
C516        C762   1.491       .  S
C517        C518   1.393       .  A
C517        H521   1.085       .  S
C518        C519   1.391   1_554  A
C518        C565   1.468       .  S
C519        H522   1.085       .  S
C523        C524   1.427       .  A
C523        C528   1.408   1_556  A
C523        C755   1.504       .  S
C524        C525   1.425   1_556  A
C524        H529   1.082       .  S
C525        C526   1.391       .  A
C525        C642   1.489   1_554  S
C526        C527   1.384       .  A
C526        H530   1.088       .  S
C527        C528   1.399       .  A
C527        C555   1.464       .  S
C528        H531   1.084       .  S
C532        C533   1.428       .  A
C532        C537   1.408   1_556  A
C532        C632   1.504       .  S
C533        C534   1.424       .  A
C533        H538   1.082       .  S
C534        C535   1.394   1_556  A
C534        C745   1.487       .  S
C535        C536   1.382       .  A
C535        H539   1.087       .  S
C536        C537   1.394       .  A
C536        C545   1.461       .  S
C537        H540   1.084       .  S
C541        C542   1.400   1_556  A
C541        C546   1.386       .  A
C541        F548   1.358       .  S
C542        C543   1.406       .  A
C543        C544   1.401       .  A
C543        F550   1.358       .  S
C544        C545   1.404       .  A
C544        F549   1.358       .  S
C545        C546   1.402   1_554  A
C546        F547   1.359       .  S
C551        C552   1.403       .  A
C551        C556   1.399       .  A
C551        F558   1.358       .  S
C552        C553   1.399   1_554  A
C553        C554   1.389       .  A
C553        F560   1.357       .  S
C554        C555   1.406   1_556  A
C554        F559   1.359       .  S
C555        C556   1.405       .  A
C556        F557   1.357       .  S
C561        C562   1.401       .  A
C561        C566   1.393       .  A
C561        F568   1.358       .  S
C562        C563   1.402   1_554  A
C563        C564   1.391       .  A
C563        F570   1.359       .  S
C564        C565   1.406   1_556  A
C564        F569   1.358       .  S
C565        C566   1.405       .  A
C566        F567   1.358       .  S
C571        C572   1.408       .  A
C571        C576   1.398       .  A
C571        F578   1.358       .  S
C572        C573   1.408       .  A
C573        C574   1.401       .  A
C573        F580   1.357       .  S
C574        C575   1.414       .  A
C574        F579   1.356       .  S
C575        C576   1.417       .  A
C576        F577   1.357       .  S
C581        C582   1.415       .  A
C581        C586   1.404       .  A
C581        F588   1.359       .  S
C582        C583   1.412       .  A
C583        C584   1.418       .  A
C583        F590   1.356       .  S
C584        C585   1.415       .  A
C584        F589   1.357       .  S
C585        C586   1.411       .  A
C586        F587   1.358       .  S
C591        C592   1.412       .  A
C591        C596   1.415       .  A
C591        F598   1.356       .  S
C592        C593   1.422       .  A
C593        C594   1.411       .  A
C593        F600   1.356       .  S
C594        C595   1.403       .  A
C594        F599   1.357       .  S
C595        C596   1.416       .  A
C596        F597   1.358       .  S
C601        C602   1.405       .  A
C601        C606   1.407       .  A
C601        F608   1.358       .  S
C602        C603   1.409       .  A
C603        C604   1.402       .  A
C603        F610   1.358       .  S
C604        C605   1.404       .  A
C604        F609   1.353       .  S
C605        C606   1.416       .  A
C606        F607   1.358       .  S
C611        C612   1.410       .  A
C611        C616   1.400       .  A
C611        F618   1.358       .  S
C612        C613   1.405       .  A
C613        C614   1.408       .  A
C613        F620   1.358       .  S
C614        C615   1.412       .  A
C614        F619   1.357       .  S
C615        C616   1.406       .  A
C616        F617   1.358       .  S
C621        C622   1.406       .  A
C621        C626   1.403       .  A
C621        F628   1.358       .  S
C622        C623   1.406   1_556  A
C623        C624   1.405       .  A
C623        F630   1.357       .  S
C624        C625   1.405   1_554  A
C624        F629   1.357       .  S
C625        C626   1.410       .  A
C626        F627   1.359       .  S
C631        C632   1.407       .  A
C631        C636   1.412       .  A
C631        F638   1.357   1_556  S
C632        C633   1.413       .  A
C633        C634   1.403       .  A
C633        F640   1.359       .  S
C634        C635   1.411       .  A
C634        F639   1.357       .  S
C635        C636   1.414       .  A
C636        F637   1.356       .  S
C641        C642   1.409   1_554  A
C641        C646   1.407       .  A
C641        F648   1.357       .  S
C642        C643   1.412       .  A
C643        C644   1.405       .  A
C643        F650   1.358       .  S
C644        C645   1.404       .  A
C644        F649   1.353       .  S
C645        C646   1.410   1_556  A
C646        F647   1.358       .  S
C651        C652   1.411       .  A
C651        C656   1.413       .  A
C651        F658   1.358       .  S
C652        C653   1.404       .  A
C653        C654   1.410       .  A
C653        F660   1.358       .  S
C654        C655   1.422       .  A
C654        F659   1.357       .  S
C655        C656   1.412       .  A
C656        F657   1.355       .  S
C661        C662   1.406       .  A
C661        C666   1.397       .  A
C661        F668   1.358       .  S
C662        C663   1.403       .  A
C663        C664   1.387       .  A
C663        F670   1.359       .  S
C664        C665   1.400       .  A
C664        F669   1.359       .  S
C665        C666   1.402       .  A
C666        F667   1.358       .  S
C671        C672   1.408       .  A
C671        C676   1.401       .  A
C671        F678   1.357       .  S
C672        C673   1.407       .  A
C673        C674   1.399       .  A
C673        F680   1.357       .  S
C674        C675   1.418       .  A
C674        F679   1.358       .  S
C675        C676   1.414       .  A
C676        F677   1.357       .  S
C681        C682   1.407       .  A
C681        C686   1.405       .  A
C681        F688   1.358       .  S
C682        C683   1.398       .  A
C683        C684   1.383       .  A
C683        F690   1.358       .  S
C684        C685   1.407       .  A
C684        F689   1.357       .  S
C685        C686   1.407       .  A
C686        F687   1.357       .  S
C691        C692   1.406       .  A
C691        C696   1.389       .  A
C691        F698   1.358       .  S
C692        C693   1.402       .  A
C693        C694   1.394       .  A
C693        F700   1.358       .  S
C694        C695   1.404       .  A
C694        F699   1.358       .  S
C695        C696   1.400       .  A
C696        F697   1.359       .  S
C701        C702   1.405       .  A
C701        C706   1.413       .  A
C701        F708   1.358       .  S
C702        C703   1.414       .  A
C703        C704   1.411       .  A
C703        F710   1.358       .  S
C704        C705   1.410       .  A
C704        F709   1.356       .  S
C705        C706   1.422       .  A
C706        F707   1.357       .  S
C711        C712   1.411       .  A
C711        C716   1.405       .  A
C711        F718   1.359       .  S
C712        C713   1.409       .  A
C713        C714   1.413       .  A
C713        F720   1.357       .  S
C714        C715   1.412       .  A
C714        F719   1.357       .  S
C715        C716   1.410       .  A
C716        F717   1.355       .  S
C721        C722   1.404       .  A
C721        C726   1.399       .  A
C721        F728   1.357       .  S
C722        C723   1.409       .  A
C723        C724   1.408       .  A
C723        F730   1.357       .  S
C724        C725   1.406       .  A
C724        F729   1.358       .  S
C725        C726   1.409       .  A
C726        F727   1.358       .  S
C731        C732   1.406       .  A
C731        C736   1.407       .  A
C731        F738   1.354       .  S
C732        C733   1.412       .  A
C733        C734   1.406       .  A
C733        F740   1.358       .  S
C734        C735   1.408       .  A
C734        F739   1.357       .  S
C735        C736   1.410       .  A
C736        F737   1.357       .  S
C741        C742   1.410   1_554  A
C741        C746   1.409       .  A
C741        F748   1.358       .  S
C742        C743   1.402       .  A
C743        C744   1.403       .  A
C743        F750   1.357       .  S
C744        C745   1.410       .  A
C744        F749   1.357       .  S
C745        C746   1.410   1_556  A
C746        F747   1.358       .  S
C751        C752   1.413       .  A
C751        C756   1.413       .  A
C751        F758   1.356   1_556  S
C752        C753   1.410       .  A
C753        C754   1.407       .  A
C753        F760   1.358       .  S
C754        C755   1.411       .  A
C754        F759   1.358       .  S
C755        C756   1.408       .  A
C756        F757   1.357   1_556  S
C761        C762   1.412   1_554  A
C761        C766   1.400       .  A
C761        F768   1.358       .  S
C762        C763   1.407       .  A
C763        C764   1.408       .  A
C763        F770   1.357       .  S
C764        C765   1.409       .  A
C764        F769   1.357       .  S
C765        C766   1.401   1_556  A
C766        F767   1.358       .  S
C771        C772   1.411       .  A
C771        C776   1.414       .  A
C771        F778   1.357       .  S
C772        C773   1.419       .  A
C773        C774   1.404       .  A
C773        F780   1.355       .  S
C774        C775   1.401       .  A
C774        F779   1.358       .  S
C775        C776   1.414       .  A
C776        F777   1.358       .  S
C781        C782   1.416       .  A
C781        C786   1.397       .  A
C781        F788   1.358       .  S
C782        C783   1.411       .  A
C783        C784   1.399       .  A
C783        F790   1.357       .  S
C784        C785   1.411       .  A
C784        F789   1.357       .  S
C785        C786   1.408       .  A
C786        F787   1.357       .  S
C791        C792   1.396       .  A
C791        C796   1.387       .  A
C791        F798   1.359       .  S
C792        C793   1.406       .  A
C793        C794   1.391       .  A
C793        F800   1.359       .  S
C794        C795   1.399       .  A
C794        F799   1.357       .  S
C795        C796   1.411       .  A
C796        F797   1.359       .  S
C801        C802   1.400       .  A
C801        C806   1.390       .  A
C801        F808   1.359       .  S
C802        C803   1.400       .  A
C803        C804   1.391       .  A
C803        F810   1.359       .  S
C804        C805   1.404       .  A
C804        F809   1.358       .  S
C805        C806   1.404       .  A
C806        F807   1.358       .  S
C811        C812   1.407       .  A
C811        C816   1.402       .  A
C811        F818   1.358       .  S
C812        C813   1.398       .  A
C813        C814   1.386       .  A
C813        F820   1.359       .  S
C814        C815   1.405       .  A
C814        F819   1.358       .  S
C815        C816   1.403       .  A
C816        F817   1.357       .  S
C821        C822   1.411       .  A
C821        C826   1.407       .  A
C821        F828   1.359       .  S
C822        C823   1.406       .  A
C823        C824   1.413       .  A
C823        F830   1.357   1_545  S
C824        C825   1.415       .  A
C824        F829   1.356       .  S
C825        C826   1.414       .  A
C826        F827   1.358       .  S
C831        C832   1.404   1_565  A
C831        C836   1.404       .  A
C831        F838   1.358       .  S
C832        C833   1.409       .  A
C833        C834   1.398       .  A
C833        F840   1.359       .  S
C834        C835   1.403       .  A
C834        F839   1.355       .  S
C835        C836   1.410   1_545  A
C836        F837   1.357       .  S
C841        C842   1.418       .  A
C841        C846   1.418       .  A
C841        F848   1.358   1_545  S
C842        C843   1.404       .  A
C843        C844   1.414       .  A
C843        F850   1.357       .  S
C844        C845   1.421       .  A
C844        F849   1.354       .  S
C845        C846   1.415       .  A
C846        F847   1.357   1_545  S
C851        C852   1.418       .  A
C851        C856   1.414       .  A
C851        F858   1.354       .  S
C852        C853   1.410       .  A
C853        C854   1.409       .  A
C853        F860   1.357       .  S
C854        C855   1.413       .  A
C854        F859   1.358       .  S
C855        C856   1.406       .  A
C856        F857   1.358       .  S
C861        C862   1.402       .  A
C861        C866   1.401       .  A
C861        F868   1.357       .  S
C862        C863   1.405       .  A
C863        C864   1.403       .  A
C863        F870   1.357       .  S
C864        C865   1.406       .  A
C864        F869   1.358       .  S
C865        C866   1.409       .  A
C866        F867   1.358       .  S
C871        C872   1.416       .  A
C871        C876   1.415       .  A
C871        F878   1.358       .  S
C872        C873   1.419       .  A
C873        C874   1.408       .  A
C873        F880   1.357       .  S
C874        C875   1.404       .  A
C874        F879   1.357       .  S
C875        C876   1.413       .  A
C876        F877   1.358       .  S
C881        C882   1.406       .  A
C881        C886   1.409       .  A
C881        F888   1.356       .  S
C882        C883   1.408       .  A
C883        C884   1.408       .  A
C883        F890   1.358       .  S
C884        C885   1.412       .  A
C884        F889   1.358       .  S
C885        C886   1.410       .  A
C886        F887   1.358       .  S
C891        C892   1.393       .  A
C891        C896   1.381       .  A
C891        F898   1.359   1_565  S
C892        C893   1.409       .  A
C893        C894   1.402       .  A
C893        F900   1.357       .  S
C894        C895   1.400       .  A
C894        F899   1.358       .  S
C895        C896   1.405       .  A
C896        F897   1.355   1_565  S
C901        C902   1.398   1_545  A
C901        C906   1.383       .  A
C901        F908   1.359       .  S
C902        C903   1.402       .  A
C903        C904   1.394       .  A
C903        F910   1.358       .  S
C904        C905   1.401       .  A
C904        F909   1.357       .  S
C905        C906   1.405   1_565  A
C906        F907   1.359       .  S
C911        C912   1.415       .  A
C911        C916   1.396       .  A
C911        F918   1.356       .  S
C912        C913   1.408       .  A
C913        C914   1.400       .  A
C913        F920   1.358       .  S
C914        C915   1.417       .  A
C914        F919   1.358       .  S
C915        C916   1.407       .  A
C916        F917   1.357       .  S
C921        C922   1.412       .  A
C921        C926   1.399       .  A
C921        F928   1.358       .  S
C922        C923   1.406   1_545  A
C923        C924   1.411       .  A
C923        F930   1.357       .  S
C924        C925   1.417   1_565  A
C924        F929   1.358       .  S
C925        C926   1.406       .  A
C926        F927   1.358       .  S
C931        C932   1.406   1_545  A
C931        C936   1.393       .  A
C931        F938   1.358       .  S
C932        C933   1.406       .  A
C933        C934   1.397       .  A
C933        F940   1.358       .  S
C934        C935   1.406       .  A
C934        F939   1.358       .  S
C935        C936   1.404   1_565  A
C936        F937   1.358       .  S
C941        C942   1.412       .  A
C941        C946   1.405       .  A
C941        F948   1.358       .  S
C942        C943   1.406       .  A
C943        C944   1.409       .  A
C943        F950   1.357       .  S
C944        C945   1.413       .  A
C944        F949   1.357       .  S
C945        C946   1.406       .  A
C946        F947   1.357       .  S
C951        C952   1.404       .  A
C951        C956   1.403       .  A
C951        F958   1.357       .  S
C952        C953   1.410       .  A
C953        C954   1.397       .  A
C953        F960   1.359       .  S
C954        C955   1.408       .  A
C954        F959   1.359       .  S
C955        C956   1.410       .  A
C956        F957   1.357       .  S
C961        C962   1.407       .  A
C961        C966   1.410       .  A
C961        F968   1.358       .  S
C962        C963   1.409       .  A
C963        C964   1.405       .  A
C963        F970   1.357       .  S
C964        C965   1.409       .  A
C964        F969   1.357       .  S
C965        C966   1.414       .  A
C966        F967   1.354       .  S
C971        C972   1.413       .  A
C971        C976   1.420       .  A
C971        F978   1.357       .  S
C972        C973   1.426       .  A
C973        C974   1.405       .  A
C973        F980   1.358       .  S
C974        C975   1.401       .  A
C974        F979   1.358       .  S
C975        C976   1.413       .  A
C976        F977   1.354       .  S
C981        C982   1.402   1_565  A
C981        C986   1.403       .  A
C981        F988   1.358       .  S
C982        C983   1.410       .  A
C983        C984   1.399       .  A
C983        F990   1.359       .  S
C984        C985   1.409       .  A
C984        F989   1.358       .  S
C985        C986   1.412   1_545  A
C986        F987   1.353       .  S
C991        C992   1.419       .  A
C991        C996   1.413       .  A
C991        F998   1.357       .  S
C992        C993   1.417       .  A
C993        C994   1.414       .  A
C993       F1000   1.358       .  S
C994        C995   1.412       .  A
C994        F999   1.358       .  S
C995        C996   1.408       .  A
C996        F997   1.357       .  S
C1001      C1002   1.414       .  A
C1001      C1006   1.412       .  A
C1001      F1008   1.356       .  S
C1002      C1003   1.405   1_545  A
C1003      C1004   1.405       .  A
C1003      F1010   1.358       .  S
C1004      C1005   1.416   1_565  A
C1004      F1009   1.358       .  S
C1005      C1006   1.407       .  A
C1006      F1007   1.357       .  S
C1011      C1012   1.411   1_565  A
C1011      C1016   1.401       .  A
C1011      F1018   1.358       .  S
C1012      C1013   1.408       .  A
C1013      C1014   1.409       .  A
C1013      F1020   1.357       .  S
C1014      C1015   1.408       .  A
C1014      F1019   1.358       .  S
C1015      C1016   1.401   1_545  A
C1016      F1017   1.358       .  S
C1021      C1022   1.405       .  A
C1021      C1026   1.400       .  A
C1021      F1028   1.357       .  S
C1022      C1023   1.400       .  A
C1023      C1024   1.384       .  A
C1023      F1030   1.358       .  S
C1024      C1025   1.406       .  A
C1024      F1029   1.359       .  S
C1025      C1026   1.403       .  A
C1026      F1027   1.357       .  S
C1031      C1032   1.403       .  A
C1031      C1036   1.389       .  A
C1031      F1038   1.359       .  S
C1032      C1033   1.404       .  A
C1033      C1034   1.390       .  A
C1033      F1040   1.358       .  S
C1034      C1035   1.403       .  A
C1034      F1039   1.358       .  S
C1035      C1036   1.406       .  A
C1036      F1037   1.359       .  S
C1041      C1042   1.395       .  A
C1041      C1046   1.389       .  A
C1041      F1048   1.358       .  S
C1042      C1043   1.414       .  A
C1043      C1044   1.400       .  A
C1043      F1050   1.358       .  S
C1044      C1045   1.403       .  A
C1044      F1049   1.358       .  S
C1045      C1046   1.417       .  A
C1046      F1047   1.356       .  S
C1051      C1052   1.410       .  A
C1051      C1056   1.389       .  A
C1051      F1058   1.353       .  S
C1052      C1053   1.407       .  A
C1053      C1054   1.397       .  A
C1053      F1060   1.355       .  S
C1054      C1055   1.418       .  A
C1054      F1059   1.357       .  S
C1055      C1056   1.409       .  A
C1056      F1057   1.358       .  S
C1061      C1062   1.402       .  A
C1061      C1066   1.406       .  A
C1061      F1068   1.357   1_455  S
C1062      C1063   1.412       .  A
C1063      C1064   1.402       .  A
C1063      F1070   1.359       .  S
C1064      C1065   1.406       .  A
C1064      F1069   1.358       .  S
C1065      C1066   1.414       .  A
C1066      F1067   1.357   1_455  S
C1071      C1072   1.409       .  A
C1071      C1076   1.398       .  A
C1071      F1078   1.359       .  S
C1072      C1073   1.406       .  A
C1073      C1074   1.409       .  A
C1073      F1080   1.357   1_455  S
C1074      C1075   1.411       .  A
C1074      F1079   1.358   1_455  S
C1075      C1076   1.407       .  A
C1076      F1077   1.358       .  S
C1081      C1082   1.403       .  A
C1081      C1086   1.410       .  A
C1081      F1088   1.357       .  S
C1082      C1083   1.415       .  A
C1083      C1084   1.412       .  A
C1083      F1090   1.358       .  S
C1084      C1085   1.411       .  A
C1084      F1089   1.357       .  S
C1085      C1086   1.421       .  A
C1086      F1087   1.357       .  S
C1091      C1092   1.412       .  A
C1091      C1096   1.409       .  A
C1091      F1098   1.357       .  S
C1092      C1093   1.422       .  A
C1093      C1094   1.414       .  A
C1093      F1100   1.357       .  S
C1094      C1095   1.405       .  A
C1094      F1099   1.358       .  S
C1095      C1096   1.412       .  A
C1096      F1097   1.357       .  S
C1101      C1102   1.409       .  A
C1101      C1106   1.404       .  A
C1101      F1108   1.358       .  S
C1102      C1103   1.410   1_455  A
C1103      C1104   1.403       .  A
C1103      F1110   1.358       .  S
C1104      C1105   1.406   1_655  A
C1104      F1109   1.359       .  S
C1105      C1106   1.403       .  A
C1106      F1107   1.356       .  S
C1111      C1112   1.404       .  A
C1111      C1116   1.407       .  A
C1111      F1118   1.358   1_455  S
C1112      C1113   1.411       .  A
C1113      C1114   1.405       .  A
C1113      F1120   1.358       .  S
C1114      C1115   1.408       .  A
C1114      F1119   1.357       .  S
C1115      C1116   1.412       .  A
C1116      F1117   1.352   1_455  S
C1121      C1122   1.413       .  A
C1121      C1126   1.410       .  A
C1121      F1128   1.357       .  S
C1122      C1123   1.408       .  A
C1123      C1124   1.405       .  A
C1123      F1130   1.358       .  S
C1124      C1125   1.411       .  A
C1124      F1129   1.357       .  S
C1125      C1126   1.406       .  A
C1126      F1127   1.357       .  S
C1131      C1132   1.405       .  A
C1131      C1136   1.408       .  A
C1131      F1138   1.355       .  S
C1132      C1133   1.412       .  A
C1133      C1134   1.405       .  A
C1133      F1140   1.358       .  S
C1134      C1135   1.406       .  A
C1134      F1139   1.357       .  S
C1135      C1136   1.411       .  A
C1136      F1137   1.358       .  S
C1141      C1142   1.406       .  A
C1141      C1146   1.400       .  A
C1141      F1148   1.359       .  S
C1142      C1143   1.414       .  A
C1143      C1144   1.420       .  A
C1143      F1150   1.357       .  S
C1144      C1145   1.412       .  A
C1144      F1149   1.357       .  S
C1145      C1146   1.416       .  A
C1146      F1147   1.358       .  S
C1151      C1152   1.407       .  A
C1151      C1156   1.400       .  A
C1151      F1158   1.358       .  S
C1152      C1153   1.405       .  A
C1153      C1154   1.401       .  A
C1153      F1160   1.358       .  S
C1154      C1155   1.404       .  A
C1154      F1159   1.356       .  S
C1155      C1156   1.403       .  A
C1156      F1157   1.357       .  S
C1161      C1162   1.410       .  A
C1161      C1166   1.400       .  A
C1161      F1168   1.358       .  S
C1162      C1163   1.418       .  A
C1163      C1164   1.411       .  A
C1163      F1170   1.357       .  S
C1164      C1165   1.407       .  A
C1164      F1169   1.357       .  S
C1165      C1166   1.412       .  A
C1166      F1167   1.356       .  S
C1171      C1172   1.408       .  A
C1171      C1176   1.405       .  A
C1171      F1178   1.357       .  S
C1172      C1173   1.403       .  A
C1173      C1174   1.398       .  A
C1173      F1180   1.358       .  S
C1174      C1175   1.409       .  A
C1174      F1179   1.358       .  S
C1175      C1176   1.405       .  A
C1176      F1177   1.357       .  S
C1181      C1182   1.423       .  A
C1181      C1186   1.413       .  A
C1181      F1188   1.357       .  S
C1182      C1183   1.415       .  A
C1183      C1184   1.415       .  A
C1183      F1190   1.357       .  S
C1184      C1185   1.411       .  A
C1184      F1189   1.358       .  S
C1185      C1186   1.405       .  A
C1186      F1187   1.358       .  S
C1191      C1192   1.410       .  A
C1191      C1196   1.409       .  A
C1191      F1198   1.357       .  S
C1192      C1193   1.414       .  A
C1193      C1194   1.409       .  A
C1193      F1200   1.359       .  S
C1194      C1195   1.408       .  A
C1194      F1199   1.357       .  S
C1195      C1196   1.405       .  A
C1196      F1197   1.356       .  S
C1201      C1202   1.401   1_455  A
C1201      C1206   1.388       .  A
C1201      F1208   1.359       .  S
C1202      C1203   1.403       .  A
C1203      C1204   1.395       .  A
C1203      F1210   1.358       .  S
C1204      C1205   1.404       .  A
C1204      F1209   1.358       .  S
C1205      C1206   1.408   1_655  A
C1206      F1207   1.359       .  S
C1211      C1212   1.415       .  A
C1211      C1216   1.398       .  A
C1211      F1218   1.358       .  S
C1212      C1213   1.410       .  A
C1213      C1214   1.397       .  A
C1213      F1220   1.357       .  S
C1214      C1215   1.412       .  A
C1214      F1219   1.357       .  S
C1215      C1216   1.410       .  A
C1216      F1217   1.357       .  S
C1221      C1222   1.407       .  A
C1221      C1226   1.388       .  A
C1221      F1228   1.356       .  S
C1222      C1223   1.397       .  A
C1223      C1224   1.390   1_655  A
C1223      F1230   1.359   1_655  S
C1224      C1225   1.411   1_455  A
C1224      F1229   1.359       .  S
C1225      C1226   1.397       .  A
C1226      F1227   1.358       .  S
C1231      C1232   1.408       .  A
C1231      C1236   1.415       .  A
C1231      F1238   1.357   1_455  S
C1232      C1233   1.409       .  A
C1233      C1234   1.407       .  A
C1233      F1240   1.357       .  S
C1234      C1235   1.412       .  A
C1234      F1239   1.357       .  S
C1235      C1236   1.417       .  A
C1236      F1237   1.357       .  S
C1241      C1242   1.403       .  A
C1241      C1246   1.407       .  A
C1241      F1248   1.358   1_455  S
C1242      C1243   1.415       .  A
C1243      C1244   1.408       .  A
C1243      F1250   1.358       .  S
C1244      C1245   1.407       .  A
C1244      F1249   1.358       .  S
C1245      C1246   1.418       .  A
C1246      F1247   1.358   1_455  S
C1251      C1252   1.406       .  A
C1251      C1256   1.385   1_655  A
C1251      F1258   1.358   1_655  S
C1252      C1253   1.407       .  A
C1253      C1254   1.403       .  A
C1253      F1260   1.358       .  S
C1254      C1255   1.405       .  A
C1254      F1259   1.358       .  S
C1255      C1256   1.399   1_655  A
C1256      F1257   1.359       .  S
