geometry optimzed in LAMMPS
_audit_creation_date              2020-11-30 
_audit_creation_method            'lammps2cif' 
_symmetry_space_group_name_H-M    'P1' 
_symmetry_Int_Tables_number       1 
_symmetry_cell_setting            triclinic 
loop_ 
_symmetry_equiv_pos_as_xyz 
  x,y,z 
_cell_length_a                    63.75970341 
_cell_length_b                    64.18065685622796 
_cell_length_c                    31.5192158896216 
_cell_angle_alpha                 90.11960840514016 
_cell_angle_beta                  90.01764830285782 
_cell_angle_gamma                 121.2317987191295 
loop_ 
_atom_site_label 
_atom_site_type_symbol 
_atom_site_fract_x 
_atom_site_fract_y 
_atom_site_fract_z 
_atom_site_charge 
O1          O  0.21996047  0.69838084  0.30541368    -0.56800
C2          C  0.17356626  0.62854920  0.30841041     0.75800
O3          O  0.14481484  0.66463433  0.37053244    -0.57900
C4          C  0.22066525  0.71801834  0.29672792     0.75800
C5          C  0.15228423  0.67592998  0.23344430     0.78200
Cd6        Cd  0.17473064  0.67376588  0.31086499     1.37500
O7          O  0.19348043  0.64888217  0.31065683    -0.56800
O8          O  0.16691094  0.66821727  0.23502921    -0.55600
C9          C  0.16134812  0.67846014  0.39670071     0.78200
O10         O  0.14643417  0.68111960  0.26864774    -0.58000
O11         O  0.15403162  0.62914512  0.30847578    -0.56400
O12         O  0.20023123  0.71677296  0.29446873    -0.56400
O13         O  0.18302045  0.68989186  0.38271605    -0.55600
O14         O  0.19568444  0.65199170  0.65932313    -0.56800
C15         C  0.22327141  0.72115104  0.67254736     0.75800
O16         O  0.14651233  0.66607113  0.60188699    -0.57900
C17         C  0.17550449  0.63187753  0.65705949     0.75800
C18         C  0.15508681  0.67787505  0.74121442     0.78200
Cd19       Cd  0.17684596  0.67719281  0.66138217     1.37500
O20         O  0.22208092  0.70112145  0.66520392    -0.56800
O21         O  0.17057393  0.67132299  0.73773791    -0.55600
C22         C  0.16207963  0.68181375  0.57662119     0.78200
O23         O  0.14824754  0.68283825  0.70687142    -0.58000
O24         O  0.20306927  0.72042166  0.67478728    -0.56400
O25         O  0.15630378  0.63303695  0.65606354    -0.56400
O26         O  0.18326973  0.69575986  0.59158200    -0.55600
O27         O  0.18890861  0.53721121  0.66146423    -0.56800
C28         C  0.21233870  0.49609465  0.67138306     0.75800
O29         O  0.13729542  0.45515517  0.70248404    -0.57900
C30         C  0.17014681  0.53916648  0.66089036     0.75800
C31         C  0.15105208  0.47501962  0.57375731     0.78200
Cd32       Cd  0.16590120  0.49235681  0.66061159     1.37500
O33         O  0.21122097  0.51458411  0.66116273    -0.56800
O34         O  0.16899445  0.47571166  0.59211508    -0.55600
C35         C  0.14239141  0.46615563  0.73787220     0.78200
O36         O  0.13824919  0.48048639  0.59657629    -0.58000
O37         O  0.19208682  0.47644911  0.67680345    -0.56400
O38         O  0.14952793  0.51942133  0.66106217    -0.56400
O39         O  0.15620262  0.48904405  0.73649542    -0.55600
O40         O  0.21695965  0.51457542  0.30624093    -0.56800
C41         C  0.17324512  0.53848755  0.30206713     0.75800
O42         O  0.14284879  0.45624703  0.26269737    -0.57900
C43         C  0.21795657  0.49592485  0.29649222     0.75800
C44         C  0.15436317  0.47638656  0.39186637     0.78200
Cd45       Cd  0.17140559  0.49296586  0.30534731     1.37500
O46         O  0.19264055  0.53766276  0.30440158    -0.56800
O47         O  0.17379068  0.47872012  0.37670091    -0.55600
C48         C  0.14802001  0.46735789  0.22747753     0.78200
O49         O  0.14135302  0.48004442  0.36620111    -0.58000
O50         O  0.15321720  0.51823235  0.30074138    -0.56400
O51         O  0.19757625  0.47636024  0.29088339    -0.56400
O52         O  0.16269587  0.49012512  0.22905407    -0.55600
O53         O  0.51230181  0.69722724  0.67210310    -0.56800
C54         C  0.48630472  0.62696686  0.65974360     0.75800
O55         O  0.55177892  0.66573907  0.59601195    -0.57900
C56         C  0.53212328  0.71774953  0.67027422     0.75800
C57         C  0.55832047  0.67756916  0.73527065     0.78200
Cd58       Cd  0.53172447  0.67313887  0.65865649     1.37500
O59         O  0.48714583  0.64711247  0.66009616    -0.56800
O60         O  0.53561446  0.66978330  0.73436594    -0.55600
C61         C  0.54629019  0.67759645  0.57081047     0.78200
O62         O  0.56892912  0.68164854  0.69956406    -0.58000
O63         O  0.50673895  0.62811441  0.65892462    -0.56400
O64         O  0.55150514  0.71734636  0.66386724    -0.56400
O65         O  0.53468426  0.68674812  0.58664558    -0.55600
O66         O  0.37256981  0.53626754  0.66285110    -0.56800
C67         C  0.30294450  0.49639846  0.67066045     0.75800
O68         O  0.32829057  0.48320846  0.58806208    -0.57900
C69         C  0.39248944  0.53645190  0.66077930     0.75800
C70         C  0.34007179  0.46535544  0.73611481     0.78200
Cd71       Cd  0.34528653  0.49209238  0.65954434     1.37500
O72         O  0.32391497  0.51512281  0.66423355    -0.56800
O73         O  0.33405135  0.45446086  0.70058117    -0.55600
C74         C  0.34147597  0.47572171  0.57259737     0.78200
O75         O  0.34979841  0.48821056  0.73506979    -0.58000
O76         O  0.30197679  0.47620494  0.67217569    -0.56400
O77         O  0.39062347  0.51585481  0.65853344    -0.56400
O78         O  0.35596957  0.47425096  0.59819349    -0.55600
O79         O  0.48878944  0.64906121  0.29656693    -0.56800
C80         C  0.53069747  0.71977712  0.29793884     0.75800
O81         O  0.55344998  0.66796054  0.36358739    -0.57900
C82         C  0.48852252  0.62950024  0.30348367     0.75800
C83         C  0.55946595  0.68256682  0.22357767     0.78200
Cd84       Cd  0.53346381  0.67663191  0.30234526     1.37500
O85         O  0.51142017  0.69884058  0.30007990    -0.56800
O86         O  0.53674393  0.67460014  0.22546855    -0.55600
C87         C  0.54973482  0.68095932  0.38928392     0.78200
O88         O  0.57044909  0.68645980  0.25890870    -0.58000
O89         O  0.55087471  0.72040387  0.29694307    -0.56400
O90         O  0.50922193  0.63164583  0.30915088    -0.56400
O91         O  0.54022230  0.69226983  0.37379055    -0.55600
O92         O  0.37746914  0.53474124  0.29798443    -0.56800
C93         C  0.30774216  0.49408468  0.29364699     0.75800
O94         O  0.34039714  0.45327011  0.26123315    -0.57900
C95         C  0.39756387  0.53578818  0.30464968     0.75800
C96         C  0.34436350  0.47467444  0.39087733     0.78200
Cd97       Cd  0.35071561  0.49061995  0.30349541     1.37500
O98         O  0.32871388  0.51293499  0.29954102    -0.56800
O99         O  0.35805902  0.47090780  0.36688511    -0.55600
C100        C  0.34606627  0.46421962  0.22582361     0.78200
O101        O  0.33366568  0.48437947  0.37371260    -0.58000
O102        O  0.30701099  0.47401593  0.29145286    -0.56400
O103        O  0.39622226  0.51559292  0.31040693    -0.56400
O104        O  0.35535971  0.48701816  0.22735387    -0.55600
O105        O  0.33360970  0.81667301  0.66479391    -0.56800
C106        C  0.40042807  0.85979566  0.66642329     0.75800
O107        O  0.37029133  0.88697682  0.59514887    -0.57900
C108        C  0.31332758  0.81449785  0.67483851     0.75800
C109        C  0.35448479  0.88613845  0.73654423     0.78200
Cd110      Cd  0.35640243  0.86126418  0.66159109     1.37500
O111        O  0.37942244  0.84074276  0.66968582    -0.56800
O112        O  0.36400478  0.87312056  0.73572584    -0.48400
C113        C  0.35265474  0.87108660  0.57283183     0.78200
O114        O  0.34749894  0.88975342  0.70107575    -0.58000
O115        O  0.40096903  0.87958928  0.66056770    -0.56400
O116        O  0.31331778  0.83408231  0.67972436    -0.56400
O117        O  0.33661466  0.85253258  0.59250961    -0.55600
O118        O  0.48765393  0.83488673  0.67382795    -0.56800
C119        C  0.53187824  0.80763353  0.66951390     0.75800
O120        O  0.55633804  0.87779560  0.60014705    -0.57900
C121        C  0.48825645  0.85482170  0.66960286     0.75800
C122        C  0.55698680  0.87678184  0.73857709     0.78200
Cd123      Cd  0.53142748  0.85210128  0.66224405     1.37500
O124        O  0.51236544  0.80808432  0.67332171    -0.56800
O125        O  0.53463460  0.86009334  0.73783862    -0.55600
C126        C  0.53992114  0.86425700  0.57344125     0.78200
O127        O  0.56780470  0.88311691  0.70296129    -0.58000
O128        O  0.55121048  0.82783009  0.66184950    -0.56400
O129        O  0.50911694  0.87365097  0.66301065    -0.56400
O130        O  0.52111546  0.84563648  0.58805053    -0.55600
O131        O  0.37969249  0.84029456  0.28847639    -0.56800
C132        C  0.31135243  0.81078938  0.29002415     0.75800
O133        O  0.36552640  0.88563361  0.36425820    -0.57900
C134        C  0.40004061  0.85975129  0.29495344     0.75800
C135        C  0.35050068  0.88076516  0.22363536     0.78200
Cd136      Cd  0.35438856  0.85796542  0.30031348     1.37500
O137        O  0.33235641  0.81331353  0.29336302    -0.56800
O138        O  0.36184912  0.86951111  0.22567391    -0.55600
C139        C  0.35216549  0.86843287  0.38956163     0.78200
O140        O  0.34230855  0.88353479  0.25855330    -0.58000
O141        O  0.31063963  0.83015093  0.29052697    -0.56400
O142        O  0.39919198  0.87848586  0.30445396    -0.56400
O143        O  0.33958319  0.84753478  0.37310641    -0.55600
O144        O  0.48925455  0.83878740  0.28675257    -0.56800
C145        C  0.53048939  0.80965538  0.30167871     0.75800
O146        O  0.56854508  0.88450693  0.26017239    -0.57900
C147        C  0.48985282  0.85871564  0.29112212     0.75800
C148        C  0.54064292  0.86767981  0.39142179     0.78200
Cd149      Cd  0.53206993  0.85505572  0.30265372     1.37500
O150        O  0.51095436  0.81021216  0.30009077    -0.56800
O151        O  0.52036152  0.85191786  0.37538023    -0.55600
C152        C  0.55794099  0.87587186  0.22480699     0.78200
O153        O  0.55842178  0.87896336  0.36576732    -0.58000
O154        O  0.55030248  0.82999273  0.30461989    -0.56400
O155        O  0.51056726  0.87747220  0.29941944    -0.56400
O156        O  0.53570261  0.85898420  0.22637067    -0.55600
O157        O  0.83784913  0.48095637  0.66276061    -0.56800
C158        C  0.81254781  0.52246572  0.66600952     0.75800
O159        O  0.88741944  0.56288213  0.70531836    -0.57900
C160        C  0.85697951  0.47964565  0.66180439     0.75800
C161        C  0.87454028  0.54561999  0.57702252     0.78200
Cd162      Cd  0.85918268  0.52594602  0.66189701     1.37500
O163        O  0.81414268  0.50480293  0.65204406    -0.56800
O164        O  0.85496013  0.54152723  0.59433456    -0.55600
C165        C  0.88081966  0.55209312  0.74079183     0.78200
O166        O  0.88882606  0.54233878  0.60019562    -0.58000
O167        O  0.83223458  0.54085702  0.67910391    -0.56400
O168        O  0.87719671  0.49979871  0.66149197    -0.56400
O169        O  0.86575180  0.52937033  0.73922330    -0.55600
O170        O  0.83405268  0.36722742  0.66203181    -0.56800
C171        C  0.80653657  0.29840758  0.66522587     0.75800
O172        O  0.88409094  0.35672794  0.59873480    -0.57900
C173        C  0.85391396  0.38760198  0.65897834     0.75800
C174        C  0.87618686  0.33949573  0.73708829     0.78200
Cd175      Cd  0.85371492  0.34235431  0.65875855     1.37500
O176        O  0.80851196  0.31828844  0.65386177    -0.56800
O177        O  0.86209191  0.34784654  0.73555066    -0.55600
C178        C  0.86986835  0.34005909  0.57323145     0.78200
O179        O  0.88127036  0.33369891  0.70175782    -0.58000
O180        O  0.82630055  0.29922826  0.67419912    -0.56400
O181        O  0.87327574  0.38680198  0.65607208    -0.56400
O182        O  0.84946193  0.32399740  0.58829188    -0.55600
O183        O  0.84122484  0.48441401  0.30650296    -0.56800
C184        C  0.81538426  0.52721979  0.29890924     0.75800
O185        O  0.89032845  0.54798046  0.37053451    -0.57900
C186        C  0.86065507  0.48392895  0.31184281     0.75800
C187        C  0.88536327  0.55336369  0.23247518     0.78200
Cd188      Cd  0.86098751  0.52893618  0.30984171     1.37500
O189        O  0.81588829  0.50789325  0.30412288    -0.56800
O190        O  0.87052787  0.53064894  0.23458530    -0.55600
C191        C  0.87418926  0.54634182  0.39603868     0.78200
O192        O  0.89025159  0.56500363  0.26718847    -0.58000
O193        O  0.83595802  0.54694722  0.29761283    -0.56400
O194        O  0.88019913  0.50434574  0.31705641    -0.56400
O195        O  0.85299681  0.53812990  0.38085732    -0.55600
O196        O  0.84199437  0.37367880  0.30111216    -0.56800
C197        C  0.81423488  0.30528776  0.29480490     0.75800
O198        O  0.89100030  0.34222362  0.26169332    -0.57900
C199        C  0.86158826  0.39413162  0.30612237     0.75800
C200        C  0.87465324  0.34488842  0.39147948     0.78200
Cd201      Cd  0.86160501  0.34913268  0.30405902     1.37500
O202        O  0.81571287  0.32554251  0.30117652    -0.56800
O203        O  0.85683863  0.32775472  0.37162600    -0.55600
C204        C  0.88534200  0.34709559  0.22606141     0.78200
O205        O  0.88811249  0.36392617  0.37003215    -0.58000
O206        O  0.83434875  0.30591084  0.29248761    -0.56400
O207        O  0.88114264  0.39369635  0.30965002    -0.56400
O208        O  0.87039011  0.35440878  0.22725662    -0.55600
O209        O  0.65754635  0.48800837  0.31312481    -0.56800
C210        C  0.72512571  0.52794049  0.30080231     0.75800
O211        O  0.69178221  0.56965759  0.26958957    -0.57900
C212        C  0.63723911  0.48679431  0.30785817     0.75800
C213        C  0.68705839  0.55091372  0.39745098     0.78200
Cd214      Cd  0.68297797  0.53263606  0.31125130     1.37500
O215        O  0.70420255  0.50932992  0.30801900    -0.56800
O216        O  0.70411924  0.54995659  0.37910995    -0.55600
C217        C  0.68639373  0.55870013  0.23413158     0.78200
O218        O  0.66821263  0.54475384  0.37510167    -0.58000
O219        O  0.72602071  0.54804679  0.29788671    -0.56400
O220        O  0.63810063  0.50691786  0.30542931    -0.56400
O221        O  0.67821163  0.53611370  0.23545743    -0.55600
O222        O  0.54611685  0.37356573  0.29667294    -0.56800
C223        C  0.50530263  0.30459942  0.28630918     0.75800
O224        O  0.49427457  0.32997052  0.37128209    -0.57900
C225        C  0.54647185  0.39346640  0.29632581     0.75800
C226        C  0.47219095  0.34031864  0.22503777     0.78200
Cd227      Cd  0.50144242  0.34674302  0.29960483     1.37500
O228        O  0.48512645  0.30391929  0.28569065    -0.56800
O229        O  0.49534221  0.35133556  0.22457204    -0.55600
C230        C  0.48665819  0.34263287  0.38830652     0.78200
O231        O  0.46211391  0.33371983  0.26115263    -0.58000
O232        O  0.52441493  0.32535921  0.29204066    -0.56400
O233        O  0.52577534  0.39178934  0.29617588    -0.56400
O234        O  0.48459865  0.35711361  0.36380587    -0.55600
O235        O  0.65779440  0.48751422  0.65773146    -0.56800
C236        C  0.72393044  0.52602273  0.66493637     0.75800
O237        O  0.66769992  0.54595737  0.60085351    -0.57900
C238        C  0.63722297  0.48558559  0.66346054     0.75800
C239        C  0.68918149  0.55611692  0.74308416     0.78200
Cd240      Cd  0.68254559  0.53193356  0.66211154     1.37500
O241        O  0.70395697  0.50958376  0.64853205    -0.56800
O242        O  0.68046420  0.53348278  0.73944533    -0.55600
C243        C  0.68679940  0.55296907  0.57874148     0.78200
O244        O  0.69317531  0.56778744  0.70863969    -0.58000
O245        O  0.72408963  0.54437530  0.67995809    -0.56400
O246        O  0.63752445  0.50533844  0.66861287    -0.56400
O247        O  0.70421768  0.55264451  0.59704848    -0.55600
O248        O  0.52262826  0.32155851  0.67138212    -0.56800
C249        C  0.54681010  0.39180915  0.66067133     0.75800
O250        O  0.49622514  0.33021622  0.58639963    -0.57900
C251        C  0.50273367  0.30108922  0.66906042     0.75800
C252        C  0.47596564  0.34040864  0.73652348     0.78200
Cd253      Cd  0.50224162  0.34519998  0.65886779     1.37500
O254        O  0.54697806  0.37214206  0.65985520    -0.56800
O255        O  0.49899901  0.35031833  0.73519772    -0.55600
C256        C  0.48707917  0.34182628  0.57071451     0.78200
O257        O  0.46491433  0.33426163  0.70106800    -0.58000
O258        O  0.52595236  0.38972906  0.66020023    -0.56400
O259        O  0.48341555  0.30159631  0.66260951    -0.56400
O260        O  0.48390774  0.35523922  0.59630939    -0.55600
O261        O  0.69548398  0.20419136  0.64818475    -0.56800
C262        C  0.62711124  0.16078722  0.65201273     0.75800
O263        O  0.65974451  0.13183224  0.58757673    -0.57900
C264        C  0.71491668  0.20614949  0.66300845     0.75800
C265        C  0.67305893  0.13650707  0.72955645     0.78200
Cd266      Cd  0.67149972  0.15954093  0.65163045     1.37500
O267        O  0.64797769  0.18000488  0.65534938    -0.56800
O268        O  0.66561734  0.15128976  0.72799156    -0.55600
C269        C  0.67768595  0.14713239  0.56524795     0.78200
O270        O  0.67808259  0.13064946  0.69419499    -0.58000
O271        O  0.62689085  0.14104967  0.64781408    -0.56400
O272        O  0.71374344  0.18654769  0.67350638    -0.56400
O273        O  0.69298226  0.16660158  0.58391525    -0.55600
O274        O  0.65433185  0.18521512  0.29885608    -0.56800
C275        C  0.72228675  0.21295744  0.28802805     0.75800
O276        O  0.66492611  0.13595199  0.35823516    -0.57900
C277        C  0.63351618  0.16581889  0.29689738     0.75800
C278        C  0.68189711  0.14379621  0.21756696     0.78200
Cd279      Cd  0.67864018  0.16556989  0.29645666     1.37500
O280        O  0.70162269  0.21077417  0.29450423    -0.56800
O281        O  0.67359548  0.15787021  0.21950707    -0.55600
C282        C  0.68161137  0.15082772  0.38320503     0.78200
O283        O  0.68741281  0.13831505  0.25276820    -0.58000
O284        O  0.72233802  0.19332910  0.28440549    -0.56400
O285        O  0.63354753  0.14613560  0.29426028    -0.56400
O286        O  0.69710139  0.17107419  0.36717753    -0.55600
O287        O  0.48349628  0.19466257  0.29149690    -0.56800
C288        C  0.54298440  0.16640479  0.30327201     0.75800
O289        O  0.48939690  0.17557449  0.37745383    -0.57900
C290        C  0.50405337  0.21438364  0.29277664     0.75800
C291        C  0.47122638  0.14665067  0.22880856     0.78200
Cd292      Cd  0.49849791  0.16776906  0.30606281     1.37500
O293        O  0.54320703  0.18610297  0.30806538    -0.56800
O294        O  0.46039778  0.14085261  0.26439756    -0.55600
C295        C  0.48052609  0.15440951  0.39238408     0.78200
O296        O  0.49427127  0.16043602  0.22998231    -0.58000
O297        O  0.52204316  0.14720005  0.30016065    -0.56400
O298        O  0.52259605  0.21264944  0.30054236    -0.56400
O299        O  0.47862174  0.13830759  0.36666719    -0.55600
O300        O  0.53724986  0.18177671  0.66913066    -0.56800
C301        C  0.49648444  0.20813282  0.67224695     0.75800
O302        O  0.48496408  0.17188447  0.59182821    -0.57900
C303        C  0.53767586  0.16270583  0.66072463     0.75800
C304        C  0.46691043  0.13852949  0.74002036     0.78200
Cd305      Cd  0.49261442  0.16213312  0.66247732     1.37500
O306        O  0.51549658  0.20656913  0.67103695    -0.56800
O307        O  0.48987169  0.15258250  0.73783045    -0.55600
C308        C  0.47748952  0.15155580  0.57418018     0.78200
O309        O  0.45537144  0.13360600  0.70510037    -0.58000
O310        O  0.47600297  0.18830959  0.67034400    -0.56400
O311        O  0.51718031  0.14352628  0.65358854    -0.56400
O312        O  0.47550287  0.13472656  0.59804295    -0.55600
O313        O  0.59405675  0.89709480  0.93560398    -0.56800
C314        C  0.60695906  0.89918203  0.06244597     0.75800
O315        O  0.65609273  0.88843965  0.98386282    -0.57900
C316        C  0.60561252  0.90288450  0.90076315     0.75800
C317        C  0.65958765  0.95909941  0.98385613     0.78200
Cd318      Cd  0.62971046  0.90724250  0.98059505     1.37500
O319        O  0.59496083  0.89508581  0.02823205    -0.56800
O320        O  0.63688136  0.94687008  0.99140548    -0.55600
C321        C  0.63787652  0.86702194  0.97805736     0.78200
O322        O  0.66975013  0.94705551  0.97475367    -0.58000
O323        O  0.62961120  0.90687929  0.05870224    -0.56400
O324        O  0.62840438  0.91092908  0.90300422    -0.56400
O325        O  0.61732984  0.86521021  0.97303918    -0.55600
O326        O  0.59595634  0.70319204  0.02498130    -0.56800
C327        C  0.60792378  0.70924704  0.89707075     0.75800
O328        O  0.65733634  0.77480511  0.97716700    -0.57900
C329        C  0.60759155  0.71038396  0.05970965     0.75800
C330        C  0.66400379  0.70969158  0.97673142     0.78200
Cd331      Cd  0.63152799  0.72838869  0.97830787     1.37500
O332        O  0.59638299  0.70269267  0.93189714    -0.56800
O333        O  0.64092422  0.69668326  0.97368738    -0.55600
C334        C  0.63855923  0.77685672  0.97682192     0.78200
O335        O  0.67296252  0.73245728  0.98136693    -0.58000
O336        O  0.63062739  0.72499746  0.89957663    -0.56400
O337        O  0.63037113  0.72567902  0.05676691    -0.56400
O338        O  0.61809809  0.75713271  0.97721569    -0.55600
O339        O  0.90378413  0.58882484  0.93938880    -0.56800
C340        C  0.90977484  0.59976211  0.06861385     0.75800
O341        O  0.95639109  0.66300009  0.99407714    -0.57900
C342        C  0.90558651  0.60010782  0.90533795     0.75800
C343        C  0.87544483  0.63257433  0.99482723     0.78200
Cd344      Cd  0.91534879  0.62336150  0.98817995     1.37500
O345        O  0.90419389  0.58797672  0.03396733    -0.56800
O346        O  0.87330050  0.61210037  0.00105427    -0.55600
C347        C  0.96836234  0.65242533  0.98788837     0.78200
O348        O  0.89686783  0.65000655  0.98567115    -0.58000
O349        O  0.91804229  0.62240642  0.06578423    -0.56400
O350        O  0.91171606  0.62220717  0.90956274    -0.56400
O351        O  0.95569417  0.62973912  0.98151933    -0.55600
O352        O  0.71186386  0.59130476  0.94213784    -0.56800
C353        C  0.71635112  0.60599834  0.07108518     0.75800
O354        O  0.78291970  0.65210341  0.98468603    -0.57900
C355        C  0.72021433  0.60296000  0.90772922     0.75800
C356        C  0.71642977  0.65827965  0.98091077     0.78200
Cd357      Cd  0.73635330  0.62706201  0.98900359     1.37500
O358        O  0.70981018  0.59342245  0.03726425    -0.56800
O359        O  0.70412100  0.63539266  0.97656152    -0.55600
C360        C  0.78516259  0.63411519  0.99422566     0.78200
O361        O  0.73905380  0.66764720  0.98968273    -0.58000
O362        O  0.73205026  0.62848449  0.06688087    -0.56400
O363        O  0.73637708  0.62533941  0.91131118    -0.56400
O364        O  0.76540573  0.61422340  0.00091430    -0.55600
O365        O  0.33192861  0.89982480  0.02629410    -0.56800
C366        C  0.32609157  0.90549037  0.89906044     0.75800
O367        O  0.25819864  0.88256484  0.97849551    -0.57900
C368        C  0.32297193  0.90162642  0.06106814     0.75800
C369        C  0.31716934  0.95641336  0.98897565     0.78200
Cd370      Cd  0.30458183  0.90654526  0.97993705     1.37500
O371        O  0.33210939  0.90008095  0.93371707    -0.56800
O372        O  0.33133852  0.94879929  0.99822076    -0.55600
C373        C  0.25686464  0.86218795  0.98092488     0.78200
O374        O  0.29618887  0.94068196  0.97462798    -0.58000
O375        O  0.31058063  0.91209936  0.90178660    -0.56400
O376        O  0.30563299  0.90575792  0.05820428    -0.56400
O377        O  0.27706103  0.86300035  0.98198250    -0.55600
O378        O  0.13382045  0.69177460  0.03510731    -0.56800
C379        C  0.13294033  0.70016605  0.90693530     0.75800
O380        O  0.08963443  0.72213666  0.99006412    -0.57900
C381        C  0.13120634  0.70052943  0.06937009     0.75800
C382        C  0.16776015  0.76704153  0.98715766     0.78200
Cd383      Cd  0.12636274  0.71764753  0.98764446     1.37500
O384        O  0.13896849  0.69459818  0.94147563    -0.56800
O385        O  0.16931785  0.74839117  0.99234899    -0.55600
C386        C  0.07446589  0.69935164  0.98801573     0.78200
O387        O  0.14626776  0.76318526  0.98236060    -0.58000
O388        O  0.12380656  0.71352624  0.91002186    -0.56400
O389        O  0.12603253  0.71700402  0.06568513    -0.56400
O390        O  0.08357775  0.68594670  0.98587142    -0.55600
O391        O  0.89873976  0.32431354  0.93402555    -0.56800
C392        C  0.90570281  0.32013475  0.06244734     0.75800
O393        O  0.88464916  0.25262327  0.97542953    -0.57900
C394        C  0.89937751  0.31431287  0.89968346     0.75800
C395        C  0.95781906  0.31359964  0.97471447     0.78200
Cd396      Cd  0.90665888  0.29834615  0.98158955     1.37500
O397        O  0.90147450  0.32707050  0.02755778    -0.56800
O398        O  0.94874774  0.32589845  0.96195924    -0.55600
C399        C  0.86370886  0.24952051  0.98329054     0.78200
O400        O  0.94291280  0.29310403  0.99121081    -0.58000
O401        O  0.91085702  0.30359852  0.05979070    -0.56400
O402        O  0.90299743  0.29678277  0.90338809    -0.56400
O403        O  0.86326291  0.26860375  0.99122320    -0.55600
O404        O  0.69713718  0.12402283  0.01847790    -0.56800
C405        C  0.70233862  0.11694800  0.89080358     0.75800
O406        O  0.76868555  0.13638209  0.97364658    -0.57900
C407        C  0.70533485  0.12086618  0.05299263     0.75800
C408        C  0.70556953  0.06371755  0.97748640     0.78200
Cd409      Cd  0.72236498  0.11458516  0.97183920     1.37500
O410        O  0.69494596  0.12076897  0.92557589    -0.56800
O411        O  0.69218336  0.07252613  0.98454114    -0.55600
C412        C  0.77115614  0.15731704  0.97469837     0.78200
O413        O  0.72767387  0.07875201  0.96734984    -0.58000
O414        O  0.71900465  0.11186524  0.89344582    -0.56400
O415        O  0.72112941  0.11461925  0.04964907    -0.56400
O416        O  0.75157551  0.15769757  0.97310616    -0.55600
O417        O  0.43473256  0.32100987  0.02797598    -0.56800
C418        C  0.42562374  0.31051098  0.89807579     0.75800
O419        O  0.37514667  0.24753604  0.98120224    -0.57900
C420        C  0.42393583  0.31038359  0.06198653     0.75800
C421        C  0.36952123  0.31228842  0.97754715     0.78200
Cd422      Cd  0.40154630  0.29320102  0.97940411     1.37500
O423        O  0.43730267  0.31778971  0.93281894    -0.56800
O424        O  0.39262952  0.32510194  0.97906445    -0.55600
C425        C  0.39327150  0.24467582  0.97616321     0.78200
O426        O  0.36015586  0.28933963  0.97762937    -0.58000
O427        O  0.40283813  0.29522022  0.90104196    -0.56400
O428        O  0.40289522  0.29145491  0.05773181    -0.56400
O429        O  0.41415593  0.26388224  0.97353456    -0.55600
O430        O  0.43209963  0.12227625  0.93893549    -0.56800
C431        C  0.42053497  0.12202738  0.06715427     0.75800
O432        O  0.37208664  0.13233762  0.98595681    -0.57900
C433        C  0.42003780  0.11575484  0.90453230     0.75800
C434        C  0.36371714  0.06056558  0.99282901     0.78200
Cd435      Cd  0.39694376  0.11224226  0.98524569     1.37500
O436        O  0.43124491  0.12195988  0.03329986    -0.56800
O437        O  0.38639664  0.07148158  0.00091828    -0.55600
C438        C  0.39054590  0.15331925  0.97835093     0.78200
O439        O  0.35540168  0.07374430  0.98047836    -0.58000
O440        O  0.39884050  0.11763357  0.06309517    -0.56400
O441        O  0.39712127  0.10671262  0.90775478    -0.56400
O442        O  0.41087537  0.15458379  0.97412194    -0.55600
O443        O  0.31978203  0.42867228  0.93268497    -0.56800
C444        C  0.31563354  0.41619925  0.06253906     0.75800
O445        O  0.24998492  0.36834329  0.98068935    -0.57900
C446        C  0.31227948  0.41651500  0.89849597     0.75800
C447        C  0.31639723  0.36287375  0.97844277     0.78200
Cd448      Cd  0.29646473  0.39389964  0.98082213     1.37500
O449        O  0.32413722  0.42791938  0.02824161    -0.56800
O450        O  0.32911645  0.38588626  0.97813519    -0.55600
C451        C  0.24792694  0.38696329  0.98370301     0.78200
O452        O  0.29326502  0.35328800  0.98035095    -0.58000
O453        O  0.29832779  0.39424146  0.05880150    -0.56400
O454        O  0.29737435  0.39384267  0.90244386    -0.56400
O455        O  0.26777524  0.40731336  0.98572103    -0.55600
O456        O  0.12516789  0.43067171  0.02895432    -0.56800
C457        C  0.12328832  0.41844469  0.90091176     0.75800
O458        O  0.13606059  0.37017855  0.98031800    -0.57900
C459        C  0.12193528  0.41946355  0.06364165     0.75800
C460        C  0.06342389  0.36236957  0.97669099     0.78200
Cd461      Cd  0.11596275  0.39548854  0.98253911     1.37500
O462        O  0.12500740  0.42968188  0.93512466    -0.56800
O463        O  0.07438750  0.38476802  0.96775723    -0.55600
C464        C  0.15762310  0.38871603  0.98273755     0.78200
O465        O  0.07685061  0.35432278  0.98918074    -0.58000
O466        O  0.11874116  0.39684392  0.90477513    -0.56400
O467        O  0.11531557  0.39720471  0.06055853    -0.56400
O468        O  0.15907548  0.40908433  0.98479281    -0.55600
C469        C  0.22473616  0.40814755  0.98786944    -0.20300
C470        C  0.22411287  0.38602319  0.98440651    -0.08300
C471        C  0.20112031  0.36426696  0.98071601     0.30500
C472        C  0.17936392  0.36496858  0.98024440    -0.20300
C473        C  0.18025075  0.38733890  0.98334467    -0.08300
C474        C  0.20334068  0.40891029  0.98715921     0.30500
F475        F  0.20553637  0.43106789  0.98999654    -0.18900
H476        H  0.24200444  0.42523866  0.99076415     0.18900
H477        H  0.16194195  0.34812934  0.97728450     0.18900
F478        F  0.19960737  0.34244390  0.97729782    -0.18800
C479        C  0.32977309  0.31153104  0.98584218    -0.20300
C480        C  0.35488792  0.32415907  0.97565029    -0.08300
C481        C  0.36649380  0.34893542  0.96454435     0.30500
C482        C  0.35356407  0.36092275  0.96510892    -0.20300
C483        C  0.32868808  0.34866928  0.97637618    -0.08300
C484        C  0.31669016  0.32367807  0.98618798     0.30500
F485        F  0.29263617  0.31120173  0.99715983    -0.18900
H486        H  0.32042618  0.29244140  0.99438625     0.18900
H487        H  0.36323712  0.38005606  0.95669584     0.18900
F488        F  0.39044860  0.36175014  0.95282140    -0.18800
C489        C  0.37046263  0.19954746  0.99074421    -0.20300
C490        C  0.39084073  0.22047285  0.97353771    -0.08300
C491        C  0.40981818  0.21842868  0.95521832     0.30500
C492        C  0.40900702  0.19634077  0.95601166    -0.20300
C493        C  0.38924737  0.17562424  0.97474177    -0.08300
C494        C  0.36963235  0.17722278  0.99136730     0.30500
F495        F  0.35022565  0.15758979  0.00975014    -0.18900
H496        H  0.35563068  0.20065330  0.00487684     0.18900
H497        H  0.42416304  0.19557416  0.94228963     0.18900
F498        F  0.42935055  0.23784744  0.93654701    -0.18800
C499        C  0.99623294  0.31386985  0.99509092    -0.20300
C500        C  0.98456340  0.32350771  0.97119398    -0.08300
C501        C  0.99903869  0.34420559  0.94598420     0.30500
C502        C  0.02450313  0.35584870  0.94690259    -0.20300
C503        C  0.03635280  0.34721679  0.97260715    -0.08300
C504        C  0.02198481  0.32560669  0.99579454     0.30500
F505        F  0.03274098  0.31661866  0.02089067    -0.18900
H506        H  0.98552287  0.29791143  0.01457291     0.18900
H507        H  0.03505033  0.37216144  0.92805531     0.18900
F508        F  0.98868329  0.35373058  0.92110934    -0.18800
C509        C  0.81836250  0.22427665  0.98939530    -0.20300
C510        C  0.84062660  0.22529923  0.98258123    -0.08300
C511        C  0.84005619  0.20342169  0.97407026     0.30500
C512        C  0.81751206  0.18114477  0.97201253    -0.20300
C513        C  0.79525921  0.18041097  0.97800686    -0.08300
C514        C  0.79605190  0.20230396  0.98707959     0.30500
F515        F  0.77521197  0.20265635  0.99390290    -0.18900
H516        H  0.81808384  0.24068506  0.99613152     0.18900
H517        H  0.81744525  0.16460153  0.96513893     0.18900
F518        F  0.86113253  0.20352584  0.96736057    -0.18800
C519        C  0.34577433  0.99652249  0.02120072    -0.20300
C520        C  0.32558942  0.98251121  0.99456367    -0.08300
C521        C  0.31558966  0.99418459  0.97164956     0.30500
C522        C  0.32711070  0.01973496  0.97285385    -0.20300
C523        C  0.34855047  0.03375168  0.99702856    -0.08300
C524        C  0.35709016  0.02174211  0.02259831     0.30500
F525        F  0.37701406  0.03443584  0.04804443    -0.18900
H526        H  0.35345211  0.98798397  0.04009673     0.18900
H527        H  0.32007314  0.02858799  0.95319128     0.18900
F528        F  0.29574471  0.98117581  0.94621924    -0.18800
C529        C  0.23461866  0.81719641  0.98661340    -0.20300
C530        C  0.23345727  0.83836350  0.98282334    -0.08300
C531        C  0.21024511  0.83605092  0.98135467     0.30500
C532        C  0.18877014  0.81285578  0.98296550    -0.20300
C533        C  0.19015135  0.79172205  0.98636439    -0.08300
C534        C  0.21343033  0.79427360  0.98849011     0.30500
F535        F  0.21596106  0.77460514  0.99200470    -0.18900
H536        H  0.25212263  0.81826952  0.98811885     0.18900
H537        H  0.17113145  0.81143391  0.98150642     0.18900
F538        F  0.20823943  0.85603696  0.97832727    -0.18800
C539        C  0.01043758  0.69046201  0.99489484    -0.20300
C540        C  0.99561116  0.66517904  0.98794995    -0.08300
C541        C  0.00712558  0.65172343  0.98102477     0.30500
C542        C  0.03255742  0.66317682  0.98111992    -0.20300
C543        C  0.04746382  0.68834852  0.98793143    -0.08300
C544        C  0.03618708  0.70203194  0.99472824     0.30500
F545        F  0.04993571  0.72644273  0.00141080    -0.18900
H546        H  0.00211571  0.70126955  0.00037708     0.18900
H547        H  0.04059257  0.65210549  0.97566348     0.18900
F548        F  0.99390793  0.62730416  0.97407185    -0.18800
C549        C  0.83199948  0.61587745  0.01565738    -0.20300
C550        C  0.85352701  0.63506116  0.99769455    -0.08300
C551        C  0.85294147  0.65508437  0.98083016     0.30500
C552        C  0.83090736  0.65524832  0.98067140    -0.20300
C553        C  0.80916782  0.63546412  0.99726475    -0.08300
C554        C  0.81019319  0.61597720  0.01548272     0.30500
F555        F  0.78998103  0.59663808  0.03280223    -0.18900
H556        H  0.83184023  0.60033204  0.02935452     0.18900
H557        H  0.83069227  0.67047313  0.96650334     0.18900
F558        F  0.87330244  0.67398832  0.96306251    -0.18800
C559        C  0.66790109  0.67412592  0.95961354    -0.20300
C560        C  0.67898431  0.69813516  0.97479630    -0.08300
C561        C  0.70346555  0.70984765  0.98900498     0.30500
C562        C  0.71599914  0.69714470  0.98995743    -0.20300
C563        C  0.70437577  0.67271242  0.97644164    -0.08300
C564        C  0.68034726  0.66159870  0.96010638     0.30500
F565        F  0.66859341  0.63843992  0.94482350    -0.18900
H566        H  0.64927141  0.66477418  0.94758430     0.18900
H567        H  0.73451832  0.70619350  0.00228670     0.18900
F568        F  0.71497870  0.73316942  0.00332234    -0.18800
C569        C  0.69674862  0.00039883  0.96938046    -0.20300
C570        C  0.67273423  0.98601473  0.98503102    -0.08300
C571        C  0.66047304  0.99759419  0.99992231     0.30500
C572        C  0.67161338  0.02274831  0.99778776    -0.20300
C573        C  0.69527684  0.03718399  0.98106845    -0.08300
C574        C  0.70800763  0.02585523  0.96738945     0.30500
F575        F  0.73094784  0.03921488  0.95107807    -0.18900
H576        H  0.70655183  0.99192590  0.95773439     0.18900
H577        H  0.66143094  0.03091464  0.00901836     0.18900
F578        F  0.63744913  0.98466971  0.01618005    -0.18800
C579        C  0.61806787  0.82243292  0.96823134    -0.20300
C580        C  0.63953094  0.84475757  0.97709323    -0.08300
C581        C  0.66134553  0.84488096  0.98526890     0.30500
C582        C  0.66135706  0.82290232  0.98452901    -0.20300
C583        C  0.63960258  0.80056641  0.97600458    -0.08300
C584        C  0.61800421  0.80075510  0.96764894     0.30500
F585        F  0.59653765  0.77991635  0.95860407    -0.18900
H586        H  0.60095831  0.82158078  0.96170643     0.18900
H587        H  0.67818918  0.82329680  0.99126261     0.18900
F588        F  0.68245403  0.86602237  0.99452453    -0.18800
C589        C  0.46883657  0.13790784  0.81901473    -0.20300
C590        C  0.45461837  0.12975870  0.78174091    -0.08300
C591        C  0.42893541  0.11538206  0.78543299     0.30500
C592        C  0.41783422  0.11020780  0.82552634    -0.20300
C593        C  0.43207809  0.11923038  0.86267467    -0.08300
C594        C  0.45778725  0.13282164  0.85897061     0.30500
F595        F  0.47235479  0.14218724  0.89374873    -0.18900
H596        H  0.48860095  0.14904221  0.81731142     0.18900
H597        H  0.39805966  0.09964927  0.82740007     0.18900
F598        F  0.41445768  0.10697522  0.75042002    -0.18800
C599        C  0.45845555  0.13755534  0.11057955    -0.20300
C600        C  0.43295530  0.12725896  0.10897068    -0.08300
C601        C  0.41989974  0.12248019  0.14735353     0.30500
C602        C  0.43229477  0.12802268  0.18633079    -0.20300
C603        C  0.45789960  0.13873962  0.18779648    -0.08300
C604        C  0.47085912  0.14346610  0.14934524     0.30500
F605        F  0.49563548  0.15415512  0.14894956    -0.18900
H606        H  0.46898849  0.14155328  0.08161462     0.18900
H607        H  0.42189043  0.12444404  0.21538468     0.18900
F608        F  0.39521224  0.11250564  0.14734699    -0.18800
C609        C  0.47054324  0.16636283  0.46100592    -0.20300
C610        C  0.47417537  0.14974067  0.43801732    -0.08300
C611        C  0.47513432  0.13122261  0.46020303     0.30500
C612        C  0.47438142  0.13068019  0.50478329    -0.20300
C613        C  0.47279519  0.14862521  0.52777043    -0.08300
C614        C  0.46992479  0.16592661  0.50525575     0.30500
F615        F  0.46777781  0.18329820  0.52598147    -0.18900
H616        H  0.46944499  0.18062874  0.44471164     0.18900
H617        H  0.47670126  0.11721250  0.52132826     0.18900
F618        F  0.47891019  0.11498310  0.43916025    -0.18800
C619        C  0.70718603  0.12085766  0.13225816    -0.20300
C620        C  0.69741151  0.12468800  0.09511790    -0.08300
C621        C  0.68095121  0.13301300  0.09897778     0.30500
C622        C  0.67537993  0.13837731  0.13901188    -0.20300
C623        C  0.68578972  0.13528890  0.17606825    -0.08300
C624        C  0.70142661  0.12599995  0.17228837     0.30500
F625        F  0.71208593  0.12289416  0.20702219    -0.18900
H626        H  0.71977841  0.11436102  0.13035577     0.18900
H627        H  0.66321129  0.14539592  0.14093215     0.18900
F628        F  0.67064394  0.13655075  0.06415577    -0.18800
C629        C  0.58771153  0.14422721  0.29398799    -0.20300
C630        C  0.61042285  0.16610916  0.29798021    -0.08300
C631        C  0.61070609  0.18803470  0.30356594     0.30500
C632        C  0.58873657  0.18791912  0.30519561    -0.20300
C633        C  0.56601834  0.16603216  0.30135324    -0.08300
C634        C  0.56572518  0.14411740  0.29563294     0.30500
F635        F  0.54424785  0.12252896  0.29169633    -0.18900
H636        H  0.58692224  0.12709716  0.28966766     0.18900
H637        H  0.58955281  0.20505687  0.30961044     0.18900
F638        F  0.63215487  0.20963110  0.30783261    -0.18800
C639        C  0.69087845  0.11650355  0.77224699    -0.20300
C640        C  0.67720112  0.12800260  0.77073476    -0.08300
C641        C  0.66995723  0.13363702  0.80923001     0.30500
C642        C  0.67754695  0.12920236  0.84802003    -0.20300
C643        C  0.69244958  0.11904568  0.84947401    -0.08300
C644        C  0.69843918  0.11202133  0.81114353     0.30500
F645        F  0.71198604  0.10125784  0.81104858    -0.18900
H646        H  0.69657306  0.11181463  0.74320809     0.18900
H647        H  0.67234662  0.13446885  0.87698035     0.18900
F648        F  0.65611554  0.14408921  0.80959110    -0.18800
C649        C  0.66164120  0.12721958  0.45003815    -0.20300
C650        C  0.68241724  0.14595582  0.42922722    -0.08300
C651        C  0.70298836  0.16208672  0.45391024     0.30500
C652        C  0.70181165  0.16105121  0.49818571    -0.20300
C653        C  0.68026275  0.14382948  0.51915672    -0.08300
C654        C  0.66057107  0.12604325  0.49463386     0.30500
F655        F  0.63968508  0.10856799  0.51355731    -0.18900
H656        H  0.64564753  0.11435398  0.43191336     0.18900
H657        H  0.71750087  0.17466570  0.51610650     0.18900
F658        F  0.72393918  0.17975698  0.43540141    -0.18800
C659        C  0.60516208  0.18311869  0.66430399    -0.20300
C660        C  0.60427490  0.16139523  0.65358074    -0.08300
C661        C  0.58138884  0.14030066  0.64545626     0.30500
C662        C  0.55994650  0.14100348  0.64799549    -0.20300
C663        C  0.56076303  0.16263323  0.65884735    -0.08300
C664        C  0.58362969  0.18377342  0.66719787     0.30500
F665        F  0.58527098  0.20501059  0.67843285    -0.18900
H666        H  0.62251863  0.19957154  0.67097744     0.18900
H667        H  0.54262866  0.12448899  0.64139021     0.18900
F668        F  0.57959689  0.11892542  0.63490588    -0.18800
C669        C  0.43740874  0.31809283  0.77900105    -0.20300
C670        C  0.46273882  0.33501798  0.77754219    -0.08300
C671        C  0.47549375  0.34467944  0.81599176     0.30500
C672        C  0.46321407  0.33690000  0.85484097    -0.20300
C673        C  0.43802217  0.31933703  0.85638788    -0.08300
C674        C  0.42514769  0.31021528  0.81786840     0.30500
F675        F  0.40083353  0.29317725  0.81754056    -0.18900
H676        H  0.42717572  0.31022037  0.75000222     0.18900
H677        H  0.47358475  0.34441648  0.88384504     0.18900
F678        F  0.49992401  0.36137443  0.81625868    -0.18800
C679        C  0.47891953  0.25590739  0.66645082    -0.20300
C680        C  0.50158437  0.27754645  0.67268761    -0.08300
C681        C  0.52249388  0.27610314  0.68100514     0.30500
C682        C  0.52067865  0.25340673  0.68165024    -0.20300
C683        C  0.49803417  0.23185954  0.67442381    -0.08300
C684        C  0.47707293  0.23333682  0.66734763     0.30500
F685        F  0.45482077  0.21307025  0.65997422    -0.18900
H686        H  0.46248933  0.25639275  0.66009052     0.18900
H687        H  0.53705465  0.25271864  0.68741615     0.18900
F688        F  0.54466916  0.29648829  0.68813457    -0.18800
C689        C  0.71016744  0.59365955  0.78846729    -0.20300
C690        C  0.69540500  0.56818057  0.78534030    -0.08300
C691        C  0.68833924  0.55432137  0.82296373     0.30500
C692        C  0.69627300  0.56574103  0.86251910    -0.20300
C693        C  0.71151734  0.59116531  0.86558483    -0.08300
C694        C  0.71818207  0.60507853  0.82805525     0.30500
F695        F  0.73246538  0.62974769  0.82945059    -0.18900
H696        H  0.71599031  0.60477626  0.76014171     0.18900
H697        H  0.69070615  0.55458228  0.89080367     0.18900
F698        F  0.67392585  0.52966136  0.82168041    -0.18800
C699        C  0.59143306  0.46017654  0.66593129    -0.20300
C700        C  0.61412386  0.46154992  0.66376818    -0.08300
C701        C  0.61441782  0.43978029  0.66134499     0.30500
C702        C  0.59247567  0.41726480  0.66057669    -0.20300
C703        C  0.56978776  0.41588835  0.66211077    -0.08300
C704        C  0.56945586  0.43762557  0.66502815     0.30500
F705        F  0.54796947  0.43720800  0.66690994    -0.18900
H706        H  0.59065715  0.47660209  0.66792481     0.18900
H707        H  0.59329259  0.40086318  0.65854712     0.18900
F708        F  0.63586155  0.44011224  0.65972374    -0.18800
C709        C  0.47009316  0.34771716  0.14809727    -0.20300
C710        C  0.45814826  0.33456938  0.18485827    -0.08300
C711        C  0.43410312  0.31437407  0.18132242     0.30500
C712        C  0.42289146  0.30686202  0.14138254    -0.20300
C713        C  0.43532124  0.31944435  0.10435580    -0.08300
C714        C  0.45884376  0.34040290  0.10834912     0.30500
F715        F  0.47137619  0.35356370  0.07380507    -0.18900
H716        H  0.48852327  0.36338667  0.14995483     0.18900
H717        H  0.40471182  0.29083752  0.13937221     0.18900
F718        F  0.42193726  0.30104542  0.21597684    -0.18800
C719        C  0.47920603  0.32071804  0.45681152    -0.20300
C720        C  0.48163553  0.34081230  0.43464874    -0.08300
C721        C  0.48192460  0.35974266  0.45793839     0.30500
C722        C  0.48201000  0.35939695  0.50261188    -0.20300
C723        C  0.48165489  0.34014185  0.52454832    -0.08300
C724        C  0.47905895  0.32025604  0.50106396     0.30500
F725        F  0.47731539  0.30064932  0.52087395    -0.18900
H726        H  0.47836791  0.30560876  0.43981080     0.18900
H727        H  0.48381947  0.37485419  0.51994551     0.18900
F728        F  0.48380207  0.37929452  0.43775826    -0.18800
C729        C  0.48452028  0.23804998  0.27496764    -0.20300
C730        C  0.50576031  0.23799045  0.28636461    -0.08300
C731        C  0.52766931  0.26036335  0.29350353     0.30500
C732        C  0.52778488  0.28222368  0.29138184    -0.20300
C733        C  0.50609365  0.28205971  0.28240089    -0.08300
C734        C  0.48457927  0.25973492  0.27309536     0.30500
F735        F  0.46325505  0.25861598  0.26354681    -0.18900
H736        H  0.46749714  0.22115353  0.26868729     0.18900
H737        H  0.54460085  0.29916562  0.29850116     0.18900
F738        F  0.54866434  0.26111342  0.30430076    -0.18800
C739        C  0.68966427  0.56956969  0.11571036    -0.20300
C740        C  0.70649403  0.59474553  0.11315555    -0.08300
C741        C  0.71434835  0.60845242  0.15106783     0.30500
C742        C  0.70645684  0.59685818  0.19050861    -0.20300
C743        C  0.69080563  0.57144719  0.19292955    -0.08300
C744        C  0.68187579  0.55801381  0.15497318     0.30500
F745        F  0.66621054  0.53350516  0.15562415    -0.18900
H746        H  0.68301293  0.55857023  0.08719035     0.18900
H747        H  0.71358749  0.60763890  0.21917787     0.18900
F748        F  0.73037776  0.63288192  0.15026990    -0.18800
C749        C  0.66752482  0.55303356  0.46508525    -0.20300
C750        C  0.68858820  0.55727280  0.44315624    -0.08300
C751        C  0.71023757  0.56474697  0.46644046     0.30500
C752        C  0.71002073  0.56560011  0.51073427    -0.20300
C753        C  0.68828650  0.55890797  0.53289938    -0.08300
C754        C  0.66731851  0.55385760  0.50955238     0.30500
F755        F  0.64608131  0.54788766  0.52954246    -0.18900
H756        H  0.65069669  0.54754651  0.44799186     0.18900
H757        H  0.72657805  0.56993446  0.52775157     0.18900
F758        F  0.73129190  0.56976740  0.44674685    -0.18800
C759        C  0.61408481  0.44134452  0.30696515    -0.20300
C760        C  0.61389214  0.46308194  0.30424505    -0.08300
C761        C  0.59138930  0.46174830  0.29738705     0.30500
C762        C  0.56960880  0.43908528  0.29400075    -0.20300
C763        C  0.56979875  0.41734345  0.29729308    -0.08300
C764        C  0.59236996  0.41873527  0.30345411     0.30500
F765        F  0.59353198  0.39828182  0.30692155    -0.18900
H766        H  0.63110286  0.44178751  0.31200342     0.18900
H767        H  0.55253771  0.43857262  0.28917149     0.18900
F768        F  0.59031735  0.48226518  0.29414904    -0.18800
C769        C  0.89009609  0.35232903  0.14719712    -0.20300
C770        C  0.89438940  0.34334470  0.18483994    -0.08300
C771        C  0.90498563  0.32884724  0.18177856     0.30500
C772        C  0.90947284  0.32215555  0.14191465    -0.20300
C773        C  0.90385309  0.33001306  0.10423014    -0.08300
C774        C  0.89497380  0.34599542  0.10738857     0.30500
F775        F  0.89006091  0.35481143  0.07208803    -0.18900
H776        H  0.88225598  0.36376506  0.14847478     0.18900
H777        H  0.91666181  0.31016735  0.14060208     0.18900
F778        F  0.90984856  0.32004092  0.21713415    -0.18800
C779        C  0.76818704  0.28136984  0.28857745    -0.20300
C780        C  0.79051173  0.28192448  0.29075356    -0.08300
C781        C  0.79001617  0.25973468  0.28957991     0.30500
C782        C  0.76778998  0.23763970  0.28736144    -0.20300
C783        C  0.74543751  0.23693554  0.28642535    -0.08300
C784        C  0.74579690  0.25907953  0.28624185     0.30500
F785        F  0.72462142  0.25924226  0.28395231    -0.18900
H786        H  0.76804604  0.29816146  0.28892230     0.18900
H787        H  0.76813388  0.22095231  0.28749027     0.18900
F788        F  0.81098499  0.25918190  0.29172916    -0.18800
C789        C  0.91450323  0.60198407  0.14755900    -0.20300
C790        C  0.90628623  0.58779183  0.11035078    -0.08300
C791        C  0.89366964  0.56225392  0.11388826     0.30500
C792        C  0.88816803  0.55127702  0.15383861    -0.20300
C793        C  0.89509531  0.56544851  0.19108091    -0.08300
C794        C  0.90905248  0.59098131  0.18756229     0.30500
F795        F  0.91654789  0.60539386  0.22262293    -0.18900
H796        H  0.92454529  0.62164255  0.14578831     0.18900
H797        H  0.87759340  0.53160793  0.15552529     0.18900
F798        F  0.88559560  0.54776571  0.07892998    -0.18800
C799        C  0.77019930  0.54856984  0.29068033    -0.20300
C800        C  0.74767055  0.52683763  0.29698124    -0.08300
C801        C  0.74742043  0.50486560  0.30117431     0.30500
C802        C  0.76946582  0.50500344  0.30069226    -0.20300
C803        C  0.79206042  0.52693757  0.29581402    -0.08300
C804        C  0.79212410  0.54870957  0.29001730     0.30500
F805        F  0.81336806  0.57032749  0.28447611    -0.18900
H806        H  0.77098547  0.56573684  0.28700093     0.18900
H807        H  0.76886616  0.48796441  0.30496188     0.18900
F808        F  0.72604415  0.48333904  0.30645530    -0.18800
C809        C  0.88265517  0.46120253  0.31800346    -0.20300
C810        C  0.86066981  0.46084731  0.31137723    -0.08300
C811        C  0.83903645  0.43837900  0.30335796     0.30500
C812        C  0.83954242  0.41686856  0.30162426    -0.20300
C813        C  0.86154130  0.41721460  0.30795183    -0.08300
C814        C  0.88315911  0.43967859  0.31635451     0.30500
F815        F  0.90482721  0.44096122  0.32311309    -0.18900
H816        H  0.89956064  0.47819176  0.32432050     0.18900
H817        H  0.82264897  0.39990941  0.29521684     0.18900
F818        F  0.81734933  0.43709874  0.29688546    -0.18800
C819        C  0.89449329  0.32008520  0.78026925    -0.20300
C820        C  0.88505576  0.33557114  0.77817866    -0.08300
C821        C  0.88222368  0.34544837  0.81620179     0.30500
C822        C  0.88756019  0.33896198  0.85534308    -0.20300
C823        C  0.89574002  0.32245184  0.85762431    -0.08300
C824        C  0.89976412  0.31352732  0.81946912     0.30500
F825        F  0.90846811  0.29819682  0.81988138    -0.18900
H826        H  0.89700220  0.31232347  0.75156596     0.18900
H827        H  0.88464896  0.34642678  0.88404560     0.18900
F828        F  0.87388394  0.36107724  0.81576896    -0.18800
C829        C  0.89257379  0.36193673  0.50724823    -0.20300
C830        C  0.87561168  0.34007257  0.52754047    -0.08300
C831        C  0.86158041  0.31908360  0.50254772     0.30500
C832        C  0.86285834  0.32053801  0.45827639    -0.20300
C833        C  0.87807560  0.34288094  0.43774685    -0.08300
C834        C  0.89381194  0.36341639  0.46275662     0.30500
F835        F  0.90910149  0.38532047  0.44447833    -0.18900
H836        H  0.90368926  0.37835101  0.52571926     0.18900
H837        H  0.85084153  0.30429463  0.44000627     0.18900
F838        F  0.84563401  0.29734055  0.52077548    -0.18800
C839        C  0.73857582  0.25140749  0.65519081    -0.20300
C840        C  0.73798328  0.22996422  0.66662569    -0.08300
C841        C  0.75987921  0.23144061  0.67933193     0.30500
C842        C  0.78189277  0.25384683  0.67963610    -0.20300
C843        C  0.78264104  0.27523281  0.66721128    -0.08300
C844        C  0.76066088  0.27385277  0.65538248     0.30500
F845        F  0.76048997  0.29401537  0.64309328    -0.18900
H846        H  0.72199357  0.25077162  0.64528005     0.18900
H847        H  0.79849762  0.25433673  0.68889451     0.18900
F848        F  0.76026952  0.21120242  0.69035737    -0.18800
C849        C  0.88598490  0.55166825  0.81937156    -0.20300
C850        C  0.88932424  0.56507299  0.78215211    -0.08300
C851        C  0.89906806  0.59035253  0.78564297     0.30500
C852        C  0.90445984  0.60164678  0.82566182    -0.20300
C853        C  0.90064600  0.58810003  0.86297139    -0.08300
C854        C  0.89179800  0.56299718  0.85922191     0.30500
F855        F  0.88834053  0.54917802  0.89405399    -0.18900
H856        H  0.87864793  0.53225678  0.81770147     0.18900
H857        H  0.91141855  0.62098140  0.82743085     0.18900
F858        F  0.90258991  0.60406049  0.75062026    -0.18800
C859        C  0.78873383  0.54153328  0.68653745    -0.20300
C860        C  0.78926175  0.52223512  0.66664657    -0.08300
C861        C  0.76789859  0.50380993  0.64647715     0.30500
C862        C  0.74648343  0.50483994  0.64650368    -0.20300
C863        C  0.74613699  0.52432364  0.66623092    -0.08300
C864        C  0.76753913  0.54267521  0.68630994     0.30500
F865        F  0.76822122  0.56198362  0.70547820    -0.18900
H866        H  0.80489894  0.55602408  0.70211256     0.18900
H867        H  0.73032109  0.49061466  0.63053007     0.18900
F868        F  0.76781292  0.48517910  0.62585878    -0.18800
C869        C  0.86312572  0.55721639  0.46460249    -0.20300
C870        C  0.87885450  0.55216668  0.44174180    -0.08300
C871        C  0.89631723  0.54927096  0.46398865     0.30500
C872        C  0.89625647  0.54903112  0.50853413    -0.20300
C873        C  0.87901033  0.55198210  0.53135495    -0.08300
C874        C  0.86332963  0.55741748  0.50884772     0.30500
F875        F  0.84713402  0.56155751  0.52947494    -0.18900
H876        H  0.84977843  0.55991687  0.44814585     0.18900
H877        H  0.90859932  0.54493382  0.52502292     0.18900
F878        F  0.91194407  0.54454042  0.44285795    -0.18800
C879        C  0.87750544  0.45548556  0.65557824    -0.20300
C880        C  0.85586438  0.45593436  0.66084883    -0.08300
C881        C  0.83344682  0.43362377  0.66484695     0.30500
C882        C  0.83288885  0.41149995  0.66393820    -0.20300
C883        C  0.85459834  0.41110419  0.65902084    -0.08300
C884        C  0.87694731  0.43341219  0.65455657     0.30500
F885        F  0.89838227  0.43402580  0.64918908    -0.18900
H886        H  0.89497503  0.47228351  0.65213061     0.18900
H887        H  0.81544414  0.39467396  0.66735444     0.18900
F888        F  0.81204461  0.43309492  0.67006436    -0.18800
C889        C  0.59643698  0.89623884  0.18166907    -0.20300
C890        C  0.57073964  0.88406808  0.18357762    -0.08300
C891        C  0.55728205  0.87800767  0.14542492     0.30500
C892        C  0.56929528  0.88344393  0.10640435    -0.20300
C893        C  0.59492189  0.89486305  0.10436373    -0.08300
C894        C  0.60848401  0.90155324  0.14248002     0.30500
F895        F  0.63332357  0.91296632  0.14205622    -0.18900
H896        H  0.60718314  0.90098588  0.21052725     0.18900
H897        H  0.55839461  0.87825176  0.07767478     0.18900
F898        F  0.53243171  0.86658766  0.14563805    -0.18800
C899        C  0.34584401  0.88734718  0.10474009    -0.20300
C900        C  0.33192383  0.89854135  0.10273274    -0.08300
C901        C  0.32611718  0.90594023  0.14085900     0.30500
C902        C  0.33298028  0.90098088  0.18010511    -0.20300
C903        C  0.34601356  0.88883136  0.18216261    -0.08300
C904        C  0.35290036  0.88259101  0.14382945     0.30500
F905        F  0.36578875  0.87112945  0.14388328    -0.18900
H906        H  0.35075637  0.88164060  0.07597392     0.18900
H907        H  0.32764635  0.90622414  0.20892785     0.18900
F908        F  0.31377501  0.91794316  0.14030128    -0.18800
C909        C  0.46760825  0.88086867  0.30110526    -0.20300
C910        C  0.46730441  0.85973842  0.28832457    -0.08300
C911        C  0.44494957  0.83915832  0.27566120     0.30500
C912        C  0.42328754  0.83950071  0.27745692    -0.20300
C913        C  0.42342561  0.86032725  0.29160229    -0.08300
C914        C  0.44590316  0.88123285  0.30276399     0.30500
F915        F  0.44691932  0.90183106  0.31627985    -0.18900
H916        H  0.48457784  0.89695728  0.31095873     0.18900
H917        H  0.40629785  0.82326837  0.26811650     0.18900
F918        F  0.44386397  0.81853859  0.26203196    -0.18800
C919        C  0.60691119  0.90749925  0.82182757    -0.20300
C920        C  0.59310735  0.89955580  0.85946118    -0.08300
C921        C  0.56735080  0.88696025  0.85670243     0.30500
C922        C  0.55580831  0.88067575  0.81710734    -0.20300
C923        C  0.56961394  0.88716701  0.77946630    -0.08300
C924        C  0.59532150  0.90154573  0.78215879     0.30500
F925        F  0.60934249  0.90883545  0.74662657    -0.18900
H926        H  0.62673508  0.91764423  0.82301684     0.18900
H927        H  0.53597790  0.86998561  0.81600981     0.18900
F928        F  0.55320286  0.87970674  0.89211097    -0.18800
C929        C  0.56408046  0.87924795  0.50545113    -0.20300
C930        C  0.54173148  0.86935699  0.52745881    -0.08300
C931        C  0.52012177  0.86213759  0.50449584     0.30500
C932        C  0.52060124  0.86344444  0.46048623    -0.20300
C933        C  0.54246722  0.87153506  0.43794829    -0.08300
C934        C  0.56448279  0.88017929  0.46079448     0.30500
F935        F  0.58594247  0.88785082  0.44015396    -0.18900
H936        H  0.58093301  0.88487915  0.52261748     0.18900
H937        H  0.50341548  0.85703207  0.44382431     0.18900
F938        F  0.49824080  0.85305378  0.52456127    -0.18800
C939        C  0.35766177  0.88875313  0.81532616    -0.20300
C940        C  0.35041725  0.89490452  0.77754465    -0.08300
C941        C  0.33693904  0.90661641  0.78024226     0.30500
C942        C  0.32980999  0.91079965  0.81992946    -0.20300
C943        C  0.33600717  0.90345720  0.85760201    -0.08300
C944        C  0.35054423  0.89287053  0.85483400     0.30500
F945        F  0.35700190  0.88538754  0.89009747    -0.18900
H946        H  0.36804323  0.87973478  0.81438121     0.18900
H947        H  0.31880982  0.91914569  0.82107574     0.18900
F948        F  0.32972792  0.91308991  0.74465246    -0.18800
C949        C  0.33126921  0.85377619  0.45915836    -0.20300
C950        C  0.35132727  0.87173654  0.43605393    -0.08300
C951        C  0.37097992  0.89104335  0.45833156     0.30500
C952        C  0.37090601  0.89154576  0.50294699    -0.20300
C953        C  0.35120730  0.87292145  0.52600937    -0.08300
C954        C  0.33105064  0.85435410  0.50339958     0.30500
F955        F  0.31139559  0.83608150  0.52392464    -0.18900
H956        H  0.31582443  0.83876298  0.44288519     0.18900
H957        H  0.38672018  0.90596559  0.51943987     0.18900
F958        F  0.39088177  0.90857077  0.43723879    -0.18800
C959        C  0.42133259  0.83617418  0.67278068    -0.20300
C960        C  0.42302417  0.85880800  0.66908648    -0.08300
C961        C  0.44635580  0.88016102  0.66757377     0.30500
C962        C  0.46746699  0.87872202  0.66855423    -0.20300
C963        C  0.46576540  0.85604839  0.67129439    -0.08300
C964        C  0.44243485  0.83473898  0.67396504     0.30500
F965        F  0.43987872  0.81243401  0.67687296    -0.18900
H966        H  0.40363130  0.81947746  0.67425512     0.18900
H967        H  0.48516999  0.89539815  0.66674361     0.18900
F968        F  0.44887202  0.90245411  0.66490335    -0.18800
C969        C  0.32380801  0.42609478  0.18204999    -0.20300
C970        C  0.34087188  0.45125013  0.18452517    -0.08300
C971        C  0.35083065  0.46429802  0.14660106     0.30500
C972        C  0.34305724  0.45261271  0.10726269    -0.20300
C973        C  0.32511739  0.42771783  0.10466451    -0.08300
C974        C  0.31591035  0.41440639  0.14260506     0.30500
F975        F  0.29877899  0.39023898  0.14174898    -0.18900
H976        H  0.31577886  0.41562035  0.21064790     0.18900
H977        H  0.35067370  0.46328577  0.07871679     0.18900
F978        F  0.36770450  0.48853827  0.14734998    -0.18800
C979        C  0.55822045  0.68108165  0.14440361    -0.20300
C980        C  0.57217826  0.68779889  0.18197139    -0.08300
C981        C  0.59793477  0.70099049  0.17881569     0.30500
C982        C  0.60929287  0.70793809  0.13897887    -0.20300
C983        C  0.59527810  0.70171362  0.10148848    -0.08300
C984        C  0.56953297  0.68781434  0.10465960     0.30500
F985        F  0.55513615  0.68124761  0.06952557    -0.18900
H986        H  0.53840073  0.67093963  0.14572202     0.18900
H987        H  0.62909582  0.71847474  0.13754134     0.18900
F988        F  0.61220952  0.70787612  0.21411387    -0.18800
C989        C  0.55215736  0.76497331  0.29414747    -0.20300
C990        C  0.53005099  0.74247957  0.29741966    -0.08300
C991        C  0.50791606  0.74221736  0.30143513     0.30500
C992        C  0.50811365  0.76411627  0.30253105    -0.20300
C993        C  0.53032194  0.78658575  0.29992497    -0.08300
C994        C  0.55237303  0.78678660  0.29544079     0.30500
F995        F  0.57423486  0.80804065  0.29214587    -0.18900
H996        H  0.56945856  0.76575902  0.29089842     0.18900
H997        H  0.49088964  0.76347947  0.30590321     0.18900
F998        F  0.48613156  0.72091429  0.30490502    -0.18800
C999        C  0.46576054  0.58384820  0.30778093    -0.20300
C1000       C  0.46529943  0.60548311  0.30483240    -0.08300
C1001       C  0.44243679  0.60386667  0.30322752     0.30500
C1002       C  0.42070092  0.58117001  0.30342490    -0.20300
C1003       C  0.42109683  0.55951137  0.30555391    -0.08300
C1004       C  0.44391826  0.56106052  0.30825120     0.30500
F1005       F  0.44522857  0.54065647  0.31084685    -0.18900
H1006       H  0.48306998  0.58453562  0.30939533     0.18900
H1007       H  0.40345328  0.58060499  0.30190881     0.18900
F1008       F  0.44093291  0.62418686  0.30172919    -0.18800
C1009       C  0.31836875  0.42704048  0.77904613    -0.20300
C1010       C  0.33497544  0.45230030  0.77705476    -0.08300
C1011       C  0.34478420  0.46533276  0.81513131     0.30500
C1012       C  0.33763061  0.45343016  0.85417122    -0.20300
C1013       C  0.32044106  0.42833321  0.85638597    -0.08300
C1014       C  0.31101872  0.41512762  0.81826494     0.30500
F1015       F  0.29417332  0.39088154  0.81874773    -0.18900
H1016       H  0.31034434  0.41661703  0.75027180     0.18900
H1017       H  0.34530324  0.46405798  0.88285388     0.18900
F1018       F  0.36096631  0.48974344  0.81487138    -0.18800
C1019       C  0.32087097  0.46824267  0.50264667    -0.20300
C1020       C  0.34041873  0.47032953  0.52662916    -0.08300
C1021       C  0.35981167  0.47021105  0.50538309     0.30500
C1022       C  0.36023553  0.46967908  0.46081181    -0.20300
C1023       C  0.34150234  0.46950163  0.43698101    -0.08300
C1024       C  0.32136628  0.46789977  0.45847609     0.30500
F1025       F  0.30260593  0.46721661  0.43680379    -0.18900
H1026       H  0.30558060  0.46803255  0.51808840     0.18900
H1027       H  0.37600787  0.47107701  0.44498733     0.18900
F1028       F  0.37920098  0.47248770  0.52736899    -0.18800
C1029       C  0.55795109  0.67730351  0.81416775    -0.20300
C1030       C  0.57148496  0.68286103  0.77636149    -0.08300
C1031       C  0.59727029  0.69577648  0.77877748     0.30500
C1032       C  0.60908004  0.70390462  0.81817819    -0.20300
C1033       C  0.59543237  0.69922511  0.85577965    -0.08300
C1034       C  0.56967065  0.68537746  0.85333549     0.30500
F1035       F  0.55563064  0.68048290  0.88854365    -0.18900
H1036       H  0.53809568  0.66739825  0.81341236     0.18900
H1037       H  0.62893110  0.71429931  0.81915628     0.18900
F1038       F  0.61108496  0.70144223  0.74310148    -0.18800
C1039       C  0.51067588  0.74069621  0.68122514    -0.20300
C1040       C  0.53255774  0.74096818  0.67408158    -0.08300
C1041       C  0.55449993  0.76354794  0.66865490     0.30500
C1042       C  0.55416367  0.78513801  0.66794518    -0.20300
C1043       C  0.53209820  0.78476036  0.67323399    -0.08300
C1044       C  0.51040875  0.76233888  0.68114701     0.30500
F1045       F  0.48882970  0.76118347  0.68818708    -0.18900
H1046       H  0.49360343  0.72363978  0.68619467     0.18900
H1047       H  0.57120259  0.80216114  0.66258901     0.18900
F1048       F  0.57625924  0.76484256  0.66310803    -0.18800
C1049       C  0.55429896  0.70083732  0.45883961    -0.20300
C1050       C  0.55461023  0.68235822  0.43548625    -0.08300
C1051       C  0.55590315  0.66396928  0.45751806     0.30500
C1052       C  0.55475535  0.66313898  0.50211184    -0.20300
C1053       C  0.55227998  0.68057892  0.52501648    -0.08300
C1054       C  0.55306841  0.69998639  0.50291495     0.30500
F1055       F  0.55162065  0.71773208  0.52379193    -0.18900
H1056       H  0.55372950  0.71546471  0.44281870     0.18900
H1057       H  0.55431636  0.64809631  0.51849254     0.18900
F1058       F  0.55646752  0.64590679  0.43609311    -0.18800
C1059       C  0.44069123  0.60377534  0.65927101    -0.20300
C1060       C  0.46257886  0.60353560  0.66017762    -0.08300
C1061       C  0.46128483  0.58095385  0.66139441     0.30500
C1062       C  0.43845542  0.55917774  0.66165161    -0.20300
C1063       C  0.41657469  0.55951204  0.66077022    -0.08300
C1064       C  0.41797025  0.58211084  0.65954532     0.30500
F1065       F  0.39740660  0.58341900  0.65823886    -0.18900
H1066       H  0.44108935  0.62083049  0.65820916     0.18900
H1067       H  0.43791832  0.54204726  0.66259921     0.18900
F1068       F  0.48196190  0.57982736  0.66241586    -0.18800
C1069       C  0.14193940  0.46818507  0.14916357    -0.20300
C1070       C  0.13853532  0.45462532  0.18627333    -0.08300
C1071       C  0.12811653  0.42928863  0.18275474     0.30500
C1072       C  0.12207130  0.41799306  0.14290090    -0.20300
C1073       C  0.12627704  0.43163260  0.10563342    -0.08300
C1074       C  0.13588437  0.45688886  0.10924892     0.30500
F1075       F  0.14027953  0.47088935  0.07429009    -0.18900
H1076       H  0.14992092  0.48770766  0.15089552     0.18900
H1077       H  0.11472672  0.39859067  0.14119909     0.18900
F1078       F  0.12490780  0.41551485  0.21753046    -0.18800
C1079       C  0.28586541  0.51704846  0.29988456    -0.20300
C1080       C  0.28516634  0.49524152  0.29070742    -0.08300
C1081       C  0.26248229  0.47432091  0.28059134     0.30500
C1082       C  0.24094728  0.47498139  0.28167774    -0.20300
C1083       C  0.24143363  0.49647503  0.29253611    -0.08300
C1084       C  0.26425760  0.51775318  0.30064095     0.30500
F1085       F  0.26574774  0.53913142  0.31001581    -0.18900
H1086       H  0.30308689  0.53347297  0.30736977     0.18900
H1087       H  0.22376269  0.45842966  0.27459897     0.18900
F1088       F  0.26094197  0.45304657  0.27007271    -0.18800
C1089       C  0.12732098  0.42849625  0.78146087    -0.20300
C1090       C  0.13429437  0.45312263  0.77896663    -0.08300
C1091       C  0.13638746  0.46580957  0.81677689     0.30500
C1092       C  0.13237830  0.45428863  0.85609908    -0.20300
C1093       C  0.12639041  0.42996004  0.85875016    -0.08300
C1094       C  0.12356332  0.41702433  0.82086391     0.30500
F1095       F  0.11777129  0.39347551  0.82174697    -0.18900
H1096       H  0.12582146  0.41837144  0.75294130     0.18900
H1097       H  0.13445286  0.46464070  0.88460787     0.18900
F1098       F  0.14278123  0.48953642  0.81591552    -0.18800
C1099       C  0.25821097  0.51876254  0.66761290    -0.20300
C1100       C  0.23590307  0.49702791  0.67558311    -0.08300
C1101       C  0.23626592  0.47585582  0.68556465     0.30500
C1102       C  0.25827087  0.47616322  0.68509987    -0.20300
C1103       C  0.28045332  0.49753588  0.67513315    -0.08300
C1104       C  0.28036058  0.51911454  0.66759317     0.30500
F1105       F  0.30145361  0.54035075  0.65893077    -0.18900
H1106       H  0.25847372  0.53538575  0.66038935     0.18900
H1107       H  0.25781002  0.45937997  0.69173701     0.18900
F1108       F  0.21530623  0.45457909  0.69471812    -0.18800
C1109       C  0.15975981  0.46087985  0.46086224    -0.20300
C1110       C  0.14841057  0.47099550  0.43761583    -0.08300
C1111       C  0.13441547  0.47876616  0.45966615     0.30500
C1112       C  0.13361503  0.47817924  0.50423577    -0.20300
C1113       C  0.14678934  0.46997372  0.52749446    -0.08300
C1114       C  0.15897746  0.46029962  0.50517143     0.30500
F1115       F  0.17130525  0.45143960  0.52613157    -0.18900
H1116       H  0.17037432  0.45444537  0.44470127     0.18900
H1117       H  0.12409615  0.48576458  0.52057259     0.18900
F1118       F  0.12329824  0.48886393  0.43857223    -0.18800
C1119       C  0.15584615  0.67566638  0.82023643    -0.20300
C1120       C  0.14668319  0.68069212  0.78352306    -0.08300
C1121       C  0.13148640  0.69042700  0.78811320     0.30500
C1122       C  0.12657697  0.69600838  0.82844485    -0.20300
C1123       C  0.13663419  0.69200275  0.86502383    -0.08300
C1124       C  0.15095105  0.68125449  0.86056717     0.30500
F1125       F  0.16114451  0.67708389  0.89485254    -0.18900
H1126       H  0.16757440  0.66815224  0.81774290     0.18900
H1127       H  0.11530879  0.70402692  0.83093007     0.18900
F1128       F  0.12208108  0.69544230  0.75369114    -0.18800
C1129       C  0.19583734  0.60747427  0.66082335    -0.20300
C1130       C  0.17431539  0.60825205  0.65649093    -0.08300
C1131       C  0.15164953  0.58621577  0.65298264     0.30500
C1132       C  0.15057878  0.56397400  0.65471210    -0.20300
C1133       C  0.17200364  0.56311391  0.65953582    -0.08300
C1134       C  0.19477589  0.58515635  0.66226843     0.30500
F1135       F  0.21600887  0.58525904  0.66668743    -0.18900
H1136       H  0.21350845  0.62414435  0.66350785     0.18900
H1137       H  0.13286395  0.54735972  0.65209257     0.18900
F1138       F  0.13040316  0.58601524  0.64792538    -0.18800
C1139       C  0.24652071  0.76559946  0.68776461    -0.20300
C1140       C  0.24680968  0.74445858  0.67736352    -0.08300
C1141       C  0.26947171  0.74630775  0.66980040     0.30500
C1142       C  0.29117496  0.76909437  0.67062166    -0.20300
C1143       C  0.29068974  0.79036295  0.67901405    -0.08300
C1144       C  0.26814866  0.78831025  0.68864688     0.30500
F1145       F  0.26676180  0.80825362  0.69766900    -0.18900
H1146       H  0.22939121  0.76469278  0.69426697     0.18900
H1147       H  0.30829615  0.77014165  0.66342128     0.18900
F1148       F  0.27068605  0.72633634  0.66017459    -0.18800
C1149       C  0.14769651  0.67007593  0.15513308    -0.20300
C1150       C  0.14380300  0.67980573  0.19220302    -0.08300
C1151       C  0.13434793  0.69524093  0.18864102     0.30500
C1152       C  0.12977022  0.70145067  0.14862201    -0.20300
C1153       C  0.13442605  0.69233803  0.11146971    -0.08300
C1154       C  0.14304981  0.67619378  0.11517865     0.30500
F1155       F  0.14786857  0.66694991  0.08028358    -0.18900
H1156       H  0.15501702  0.65819649  0.15697289     0.18900
H1157       H  0.12310509  0.71385955  0.14673228     0.18900
F1158       F  0.13071492  0.70536134  0.22359533    -0.18800
C1159       C  0.13879533  0.66206433  0.50975101    -0.20300
C1160       C  0.15690478  0.68298486  0.53116529    -0.08300
C1161       C  0.17291827  0.70377302  0.50733640     0.30500
C1162       C  0.17282147  0.70260753  0.46315877    -0.20300
C1163       C  0.15653296  0.68091545  0.44176364    -0.08300
C1164       C  0.13851308  0.66101138  0.46522079     0.30500
F1165       F  0.12227231  0.63983100  0.44552642    -0.18900
H1166       H  0.12613746  0.64586215  0.52741017     0.18900
H1167       H  0.18649647  0.71837290  0.44565913     0.18900
F1168       F  0.18978104  0.72480370  0.52674943    -0.18800
C1169       C  0.19532546  0.60567162  0.31085684    -0.20300
C1170       C  0.17333467  0.60546170  0.30567719    -0.08300
C1171       C  0.15153416  0.58318770  0.29746353     0.30500
C1172       C  0.15178566  0.56157816  0.29562267    -0.20300
C1173       C  0.17370476  0.56173297  0.30170918    -0.08300
C1174       C  0.19559589  0.58408762  0.30880538     0.30500
F1175       F  0.21723343  0.58515717  0.31451658    -0.18900
H1176       H  0.21238055  0.62257128  0.31688746     0.18900
H1177       H  0.13471883  0.54465941  0.28967581     0.18900
F1178       F  0.12997931  0.58219641  0.29101075    -0.18800
C1179       C  0.26657308  0.74247695  0.29402084    -0.20300
C1180       C  0.24402872  0.74136892  0.29065430    -0.08300
C1181       C  0.24407182  0.76302762  0.28340384     0.30500
C1182       C  0.26611477  0.78532456  0.28179342    -0.20300
C1183       C  0.28861290  0.78662443  0.28711846    -0.08300
C1184       C  0.28872415  0.76488093  0.29216008     0.30500
F1185       F  0.31008980  0.76525558  0.29672347    -0.18900
H1186       H  0.26706997  0.72605966  0.29915134     0.18900
H1187       H  0.26547646  0.80171641  0.27738529     0.18900
F1188       F  0.22282267  0.76290012  0.27910640    -0.18800
loop_ 
_geom_bond_atom_site_label_1 
_geom_bond_atom_site_label_2 
_geom_bond_distance 
_geom_bond_site_symmetry_2 
_ccdc_geom_bond_type 
O1            C4   1.268       .  A
O1           Cd6   2.474       .  S
C2           O11   1.266       .  A
C2            O7   1.265       .  A
C2         C1170   1.477       .  S
O3            C9   1.267       .  A
O3           Cd6   2.523       .  S
C4           O12   1.265       .  A
C4         C1180   1.479       .  S
C5           O10   1.268       .  A
C5            O8   1.263       .  A
C5         C1150   1.478       .  S
Cd6          O13   2.429       .  S
Cd6          O12   2.425       .  S
Cd6          O11   2.455       .  S
Cd6           O7   2.441       .  S
Cd6          O10   2.476       .  S
Cd6           O8   2.429       .  S
C9           O13   1.262       .  A
C9         C1163   1.479       .  S
O14          C17   1.267       .  A
O14         Cd19   2.465       .  S
C15          O24   1.266       .  A
C15          O20   1.269       .  A
C15        C1140   1.478       .  S
O16          C22   1.267       .  A
O16         Cd19   2.515       .  S
C17          O25   1.265       .  A
C17        C1130   1.478       .  S
C18          O23   1.268       .  A
C18          O21   1.263       .  A
C18        C1120   1.483       .  S
Cd19         O26   2.436       .  S
Cd19         O25   2.434       .  S
Cd19         O24   2.420       .  S
Cd19         O20   2.469       .  S
Cd19         O23   2.489       .  S
Cd19         O21   2.438       .  S
C22          O26   1.262       .  A
C22        C1160   1.481       .  S
O27          C30   1.266       .  A
O27         Cd32   2.462       .  S
C28          O37   1.265       .  A
C28          O33   1.267       .  A
C28        C1100   1.478       .  S
O29          C35   1.268       .  A
O29         Cd32   2.504       .  S
C30          O38   1.268       .  A
C30        C1133   1.480       .  S
C31          O36   1.266       .  A
C31          O34   1.262       .  A
C31        C1113   1.487       .  S
Cd32         O39   2.453       .  S
Cd32         O38   2.447       .  S
Cd32         O37   2.421       .  S
Cd32         O33   2.472       .  S
Cd32         O36   2.522       .  S
Cd32         O34   2.460       .  S
C35          O39   1.263       .  A
C35        C1090   1.484       .  S
O40          C43   1.268       .  A
O40         Cd45   2.487       .  S
C41          O50   1.265       .  A
C41          O46   1.267       .  A
C41        C1173   1.477       .  S
O42          C48   1.269       .  A
O42         Cd45   2.492       .  S
C43          O51   1.266       .  A
C43        C1083   1.484       .  S
C44          O49   1.265       .  A
C44          O47   1.262       .  A
C44        C1110   1.486       .  S
Cd45         O52   2.453       .  S
Cd45         O51   2.443       .  S
Cd45         O50   2.439       .  S
Cd45         O46   2.457       .  S
Cd45         O49   2.530       .  S
Cd45         O47   2.464       .  S
C48          O52   1.263       .  A
C48        C1070   1.484       .  S
O53          C56   1.269       .  A
O53         Cd58   2.467       .  S
C54          O63   1.267       .  A
C54          O59   1.266       .  A
C54        C1060   1.480       .  S
O55          C61   1.269       .  A
O55         Cd58   2.527       .  S
C56          O64   1.266       .  A
C56        C1040   1.481       .  S
C57          O62   1.269       .  A
C57          O60   1.263       .  A
C57        C1030   1.483       .  S
Cd58         O65   2.406       .  S
Cd58         O64   2.440       .  S
Cd58         O63   2.473       .  S
Cd58         O59   2.439       .  S
Cd58         O62   2.498       .  S
Cd58         O60   2.421       .  S
C61          O65   1.262       .  A
C61        C1053   1.480       .  S
O66          C69   1.266       .  A
O66         Cd71   2.441       .  S
C67          O76   1.266       .  A
C67          O72   1.268       .  A
C67        C1103   1.480       .  S
O68          C74   1.262       .  A
O68         Cd71   2.435       .  S
C69          O77   1.266       .  A
C69        C1063   1.480       .  S
C70          O75   1.263       .  A
C70          O73   1.268       .  A
C70        C1010   1.482       .  S
Cd71         O78   2.513       .  S
Cd71         O77   2.472       .  S
Cd71         O76   2.430       .  S
Cd71         O72   2.480       .  S
Cd71         O75   2.427       .  S
Cd71         O73   2.498       .  S
C74          O78   1.267       .  A
C74        C1020   1.482       .  S
O79          C82   1.266       .  A
O79         Cd84   2.460       .  S
C80          O89   1.267       .  A
C80          O85   1.268       .  A
C80         C990   1.479       .  S
O81          C87   1.269       .  A
O81         Cd84   2.529       .  S
C82          O90   1.266       .  A
C82        C1000   1.485       .  S
C83          O88   1.269       .  A
C83          O86   1.263       .  A
C83         C980   1.487       .  S
Cd84         O91   2.409       .  S
Cd84         O90   2.479       .  S
Cd84         O89   2.433       .  S
Cd84         O85   2.468       .  S
Cd84         O88   2.509       .  S
Cd84         O86   2.441       .  S
C87          O91   1.261       .  A
C87        C1050   1.482       .  S
O92          C95   1.265       .  A
O92         Cd97   2.440       .  S
C93         O102   1.266       .  A
C93          O98   1.268       .  A
C93        C1080   1.482       .  S
O94         C100   1.269       .  A
O94         Cd97   2.511       .  S
C95         O103   1.267       .  A
C95        C1003   1.484       .  S
C96         O101   1.260       .  A
C96          O99   1.269       .  A
C96        C1023   1.481       .  S
Cd97        O104   2.443       .  S
Cd97        O103   2.492       .  S
Cd97        O102   2.442       .  S
Cd97         O98   2.474       .  S
Cd97        O101   2.407       .  S
Cd97         O99   2.537       .  S
C100        O104   1.263       .  A
C100        C970   1.485       .  S
O105        C108   1.267       .  A
O105       Cd110   2.450       .  S
C106        O115   1.267       .  A
C106        O111   1.266       .  A
C106        C960   1.477       .  S
O107        C113   1.268       .  A
O107       Cd110   2.529       .  S
C108        O116   1.266       .  A
C108       C1143   1.477       .  S
C109        O114   1.269       .  A
C109        O112   1.262       .  A
C109        C940   1.484       .  S
Cd110       O117   2.430       .  S
Cd110       O116   2.440       .  S
Cd110       O115   2.448       .  S
Cd110       O111   2.441       .  S
Cd110       O114   2.506       .  S
Cd110       O112   2.426       .  S
C113        O117   1.261       .  A
C113        C953   1.487       .  S
O118        C121   1.267       .  A
O118       Cd123   2.439       .  S
C119        O128   1.266       .  A
C119        O124   1.265       .  A
C119       C1043   1.480       .  S
O120        C126   1.270       .  A
O120       Cd123   2.524       .  S
C121        O129   1.268       .  A
C121        C963   1.477       .  S
C122        O127   1.270       .  A
C122        O125   1.263       .  A
C122        C923   1.481       .  S
Cd123       O130   2.405       .  S
Cd123       O129   2.445       .  S
Cd123       O128   2.461       .  S
Cd123       O124   2.454       .  S
Cd123       O127   2.488       .  S
Cd123       O125   2.422       .  S
C126        O130   1.263       .  A
C126        C930   1.478       .  S
O131        C134   1.266       .  A
O131       Cd136   2.434       .  S
C132        O141   1.267       .  A
C132        O137   1.267       .  A
C132       C1183   1.478       .  S
O133        C139   1.269       .  A
O133       Cd136   2.529       .  S
C134        O142   1.267       .  A
C134        C913   1.476       .  S
C135        O140   1.269       .  A
C135        O138   1.262       .  A
C135        C903   1.488       .  S
Cd136       O143   2.440       .  S
Cd136       O142   2.451       .  S
Cd136       O141   2.428       .  S
Cd136       O137   2.461       .  S
Cd136       O140   2.518       .  S
Cd136       O138   2.440       .  S
C139        O143   1.262       .  A
C139        C950   1.485       .  S
O144        C147   1.267       .  A
O144       Cd149   2.416       .  S
C145        O154   1.264       .  A
C145        O150   1.265       .  A
C145        C993   1.476       .  S
O146        C152   1.271       .  A
O146       Cd149   2.496       .  S
C147        O155   1.270       .  A
C147        C910   1.475       .  S
C148        O153   1.271       .  A
C148        O151   1.262       .  A
C148        C933   1.481       .  S
Cd149       O156   2.417       .  S
Cd149       O155   2.451       .  S
Cd149       O154   2.425       .  S
Cd149       O150   2.466       .  S
Cd149       O153   2.539       .  S
Cd149       O151   2.387       .  S
C152        O156   1.263       .  A
C152        C890   1.480       .  S
O157        C160   1.266       .  A
O157       Cd162   2.473       .  S
C158        O167   1.265       .  A
C158        O163   1.268       .  A
C158        C860   1.477       .  S
O159        C165   1.268       .  A
O159       Cd162   2.509       .  S
C160        O168   1.267       .  A
C160        C880   1.486       .  S
C161        O166   1.268       .  A
C161        O164   1.259       .  A
C161        C873   1.484       .  S
Cd162       O169   2.463       .  S
Cd162       O168   2.477       .  S
Cd162       O167   2.422       .  S
Cd162       O163   2.478       .  S
Cd162       O166   2.532       .  S
Cd162       O164   2.428       .  S
C165        O169   1.265       .  A
C165        C850   1.488       .  S
O170        C173   1.267       .  A
O170       Cd175   2.491       .  S
C171        O180   1.266       .  A
C171        O176   1.268       .  A
C171        C843   1.479       .  S
O172        C178   1.266       .  A
O172       Cd175   2.518       .  S
C173        O181   1.265       .  A
C173        C883   1.486       .  S
C174        O179   1.268       .  A
C174        O177   1.264       .  A
C174        C820   1.486       .  S
Cd175       O182   2.460       .  S
Cd175       O181   2.452       .  S
Cd175       O180   2.438       .  S
Cd175       O176   2.470       .  S
Cd175       O179   2.499       .  S
Cd175       O177   2.463       .  S
C178        O182   1.262       .  A
C178        C830   1.486       .  S
O183        C186   1.266       .  A
O183       Cd188   2.455       .  S
C184        O193   1.266       .  A
C184        O189   1.268       .  A
C184        C803   1.481       .  S
O185        C191   1.267       .  A
O185       Cd188   2.504       .  S
C186        O194   1.266       .  A
C186        C810   1.482       .  S
C187        O192   1.268       .  A
C187        O190   1.263       .  A
C187        C793   1.481       .  S
Cd188       O195   2.434       .  S
Cd188       O194   2.459       .  S
Cd188       O193   2.438       .  S
Cd188       O189   2.469       .  S
Cd188       O192   2.487       .  S
Cd188       O190   2.437       .  S
C191        O195   1.262       .  A
C191        C870   1.478       .  S
O196        C199   1.268       .  A
O196       Cd201   2.469       .  S
C197        O206   1.264       .  A
C197        O202   1.269       .  A
C197        C780   1.483       .  S
O198        C204   1.268       .  A
O198       Cd201   2.521       .  S
C199        O207   1.266       .  A
C199        C813   1.484       .  S
C200        O205   1.266       .  A
C200        O203   1.262       .  A
C200        C833   1.490       .  S
Cd201       O208   2.469       .  S
Cd201       O207   2.463       .  S
Cd201       O206   2.418       .  S
Cd201       O202   2.504       .  S
Cd201       O205   2.531       .  S
Cd201       O203   2.468       .  S
C204        O208   1.263       .  A
C204        C770   1.491       .  S
O209        C212   1.267       .  A
O209       Cd214   2.454       .  S
C210        O219   1.265       .  A
C210        O215   1.268       .  A
C210        C800   1.480       .  S
O211        C217   1.268       .  A
O211       Cd214   2.513       .  S
C212        O220   1.266       .  A
C212        C760   1.482       .  S
C213        O218   1.266       .  A
C213        O216   1.261       .  A
C213        C750   1.486       .  S
Cd214       O221   2.433       .  S
Cd214       O220   2.459       .  S
Cd214       O219   2.424       .  S
Cd214       O215   2.486       .  S
Cd214       O218   2.509       .  S
Cd214       O216   2.462       .  S
C217        O221   1.261       .  A
C217        C743   1.484       .  S
O222        C225   1.266       .  A
O222       Cd227   2.450       .  S
C223        O232   1.268       .  A
C223        O228   1.264       .  A
C223        C733   1.478       .  S
O224        C230   1.262       .  A
O224       Cd227   2.444       .  S
C225        O233   1.267       .  A
C225        C763   1.482       .  S
C226        O231   1.268       .  A
C226        O229   1.264       .  A
C226        C710   1.482       .  S
Cd227       O234   2.535       .  S
Cd227       O233   2.475       .  S
Cd227       O232   2.484       .  S
Cd227       O228   2.420       .  S
Cd227       O231   2.505       .  S
Cd227       O229   2.440       .  S
C230        O234   1.268       .  A
C230        C720   1.487       .  S
O235        C238   1.265       .  A
O235       Cd240   2.443       .  S
C236        O245   1.264       .  A
C236        O241   1.267       .  A
C236        C863   1.476       .  S
O237        C243   1.267       .  A
O237       Cd240   2.515       .  S
C238        O246   1.268       .  A
C238        C700   1.481       .  S
C239        O244   1.269       .  A
C239        O242   1.263       .  A
C239        C690   1.486       .  S
Cd240       O247   2.447       .  S
Cd240       O246   2.473       .  S
Cd240       O245   2.403       .  S
Cd240       O241   2.476       .  S
Cd240       O244   2.505       .  S
Cd240       O242   2.446       .  S
C243        O247   1.261       .  A
C243        C753   1.486       .  S
O248        C251   1.270       .  A
O248       Cd253   2.489       .  S
C249        O258   1.266       .  A
C249        O254   1.268       .  A
C249        C703   1.479       .  S
O250        C256   1.262       .  A
O250       Cd253   2.428       .  S
C251        O259   1.265       .  A
C251        C680   1.479       .  S
C252        O257   1.269       .  A
C252        O255   1.263       .  A
C252        C670   1.484       .  S
Cd253       O260   2.541       .  S
Cd253       O259   2.409       .  S
Cd253       O258   2.444       .  S
Cd253       O254   2.452       .  S
Cd253       O257   2.490       .  S
Cd253       O255   2.451       .  S
C256        O260   1.269       .  A
C256        C723   1.486       .  S
O261        C264   1.268       .  A
O261       Cd266   2.453       .  S
C262        O271   1.266       .  A
C262        O267   1.265       .  A
C262        C660   1.477       .  S
O263        C269   1.268       .  A
O263       Cd266   2.530       .  S
C264        O272   1.266       .  A
C264        C840   1.477       .  S
C265        O270   1.269       .  A
C265        O268   1.263       .  A
C265        C640   1.485       .  S
Cd266       O273   2.449       .  S
Cd266       O272   2.426       .  S
Cd266       O271   2.452       .  S
Cd266       O267   2.456       .  S
Cd266       O270   2.496       .  S
Cd266       O268   2.452       .  S
C269        O273   1.262       .  A
C269        C653   1.489       .  S
O274        C277   1.265       .  A
O274       Cd279   2.454       .  S
C275        O284   1.266       .  A
C275        O280   1.267       .  A
C275        C783   1.481       .  S
O276        C282   1.267       .  A
O276       Cd279   2.542       .  S
C277        O285   1.267       .  A
C277        C630   1.483       .  S
C278        O283   1.268       .  A
C278        O281   1.263       .  A
C278        C623   1.486       .  S
Cd279       O286   2.458       .  S
Cd279       O285   2.471       .  S
Cd279       O284   2.437       .  S
Cd279       O280   2.482       .  S
Cd279       O283   2.505       .  S
Cd279       O281   2.462       .  S
C282        O286   1.261       .  A
C282        C650   1.491       .  S
O287        C290   1.265       .  A
O287       Cd292   2.412       .  S
C288        O297   1.267       .  A
C288        O293   1.266       .  A
C288        C633   1.482       .  S
O289        C295   1.262       .  A
O289       Cd292   2.439       .  S
C290        O298   1.267       .  A
C290        C730   1.476       .  S
C291        O296   1.263       .  A
C291        O294   1.269       .  A
C291        C603   1.483       .  S
Cd292       O299   2.522       .  S
Cd292       O298   2.470       .  S
Cd292       O297   2.467       .  S
Cd292       O293   2.457       .  S
Cd292       O296   2.431       .  S
Cd292       O294   2.499       .  S
C295        O299   1.267       .  A
C295        C610   1.483       .  S
O300        C303   1.266       .  A
O300       Cd305   2.452       .  S
C301        O310   1.267       .  A
C301        O306   1.268       .  A
C301        C683   1.475       .  S
O302        C308   1.261       .  A
O302       Cd305   2.431       .  S
C303        O311   1.267       .  A
C303        C663   1.476       .  S
C304        O309   1.269       .  A
C304        O307   1.262       .  A
C304        C590   1.485       .  S
Cd305       O312   2.530       .  S
Cd305       O311   2.428       .  S
Cd305       O310   2.419       .  S
Cd305       O306   2.453       .  S
Cd305       O309   2.510       .  S
Cd305       O307   2.438       .  S
C308        O312   1.269       .  A
C308        C613   1.485       .  S
O313        C316   1.267       .  A
O313       Cd318   2.462       .  S
C314        O323   1.267       .  A
C314        O319   1.268       .  A
C314        C893   1.481       .  S
O315        C321   1.271       .  A
O315       Cd318   2.530       .  S
C316        O324   1.267       .  A
C316        C920   1.482       .  S
C317        O322   1.272       .  A
C317        O320   1.261       .  A
C317        C570   1.479       .  S
Cd318       O325   2.397       .  S
Cd318       O324   2.463       .  S
Cd318       O323   2.462   1_556  S
Cd318       O319   2.447   1_556  S
Cd318       O322   2.514       .  S
Cd318       O320   2.363       .  S
C321        O325   1.264       .  A
C321        C580   1.487       .  S
O326        C329   1.266       .  A
O326       Cd331   2.476   1_554  S
C327        O336   1.267       .  A
C327        O332   1.267       .  A
C327       C1033   1.485       .  S
O328        C334   1.271       .  A
O328       Cd331   2.550       .  S
C329        O337   1.266       .  A
C329        C983   1.487       .  S
C330        O335   1.271       .  A
C330        O333   1.264       .  A
C330        C560   1.483       .  S
Cd331       O338   2.403       .  S
Cd331       O337   2.478   1_556  S
Cd331       O336   2.489       .  S
Cd331       O332   2.457       .  S
Cd331       O335   2.518       .  S
Cd331       O333   2.405       .  S
C334        O338   1.262       .  A
C334        C583   1.489       .  S
O339        C342   1.267       .  A
O339       Cd344   2.472       .  S
C340        O349   1.267       .  A
C340        O345   1.268       .  A
C340        C790   1.482       .  S
O341        C347   1.272       .  A
O341       Cd344   2.539       .  S
C342        O350   1.267       .  A
C342        C853   1.490       .  S
C343        O348   1.272       .  A
C343        O346   1.264   1_556  A
C343        C550   1.489       .  S
Cd344       O351   2.395       .  S
Cd344       O350   2.486       .  S
Cd344       O349   2.455   1_556  S
Cd344       O345   2.467   1_556  S
Cd344       O348   2.532       .  S
Cd344       O346   2.422   1_556  S
C347        O351   1.262       .  A
C347        C540   1.488       .  S
O352        C355   1.269       .  A
O352       Cd357   2.481       .  S
C353        O362   1.267       .  A
C353        O358   1.268       .  A
C353        C740   1.486       .  S
O354        C360   1.271       .  A
O354       Cd357   2.544       .  S
C355        O363   1.266       .  A
C355        C693   1.485       .  S
C356        O361   1.272       .  A
C356        O359   1.263       .  A
C356        C563   1.486       .  S
Cd357       O364   2.416   1_556  S
Cd357       O363   2.451       .  S
Cd357       O362   2.477   1_556  S
Cd357       O358   2.463   1_556  S
Cd357       O361   2.520       .  S
Cd357       O359   2.409       .  S
C360        O364   1.263   1_556  A
C360        C553   1.491       .  S
O365        C368   1.269       .  A
O365       Cd370   2.478   1_554  S
C366        O375   1.265       .  A
C366        O371   1.265       .  A
C366        C943   1.486       .  S
O367        C373   1.268       .  A
O367       Cd370   2.529       .  S
C368        O376   1.267       .  A
C368        C900   1.486       .  S
C369        O374   1.269       .  A
C369        O372   1.264       .  A
C369        C520   1.480       .  S
Cd370       O377   2.410       .  S
Cd370       O376   2.469   1_556  S
Cd370       O375   2.491       .  S
Cd370       O371   2.476       .  S
Cd370       O374   2.516       .  S
Cd370       O372   2.407       .  S
C373        O377   1.262       .  A
C373        C530   1.484       .  S
O378        C381   1.267       .  A
O378       Cd383   2.460   1_554  S
C379        O388   1.265       .  A
C379        O384   1.267       .  A
C379       C1123   1.483       .  S
O380        C386   1.269       .  A
O380       Cd383   2.504       .  S
C381        O389   1.266       .  A
C381       C1153   1.481       .  S
C382        O387   1.269       .  A
C382        O385   1.262       .  A
C382        C533   1.484       .  S
Cd383       O390   2.414       .  S
Cd383       O389   2.460   1_556  S
Cd383       O388   2.457       .  S
Cd383       O384   2.485       .  S
Cd383       O387   2.517       .  S
Cd383       O385   2.411       .  S
C386        O390   1.265       .  A
C386        C543   1.484       .  S
O391        C394   1.269       .  A
O391       Cd396   2.482       .  S
C392        O401   1.266       .  A
C392        O397   1.267       .  A
C392        C773   1.491       .  S
O393        C399   1.268       .  A
O393       Cd396   2.519       .  S
C394        O402   1.266       .  A
C394        C823   1.487       .  S
C395        O400   1.269       .  A
C395        O398   1.262       .  A
C395        C500   1.483       .  S
Cd396       O403   2.433       .  S
Cd396       O402   2.473       .  S
Cd396       O401   2.483   1_556  S
Cd396       O397   2.496   1_556  S
Cd396       O400   2.521       .  S
Cd396       O398   2.407       .  S
C399        O403   1.264       .  A
C399        C510   1.487       .  S
O404        C407   1.268       .  A
O404       Cd409   2.475   1_554  S
C405        O414   1.266       .  A
C405        O410   1.266       .  A
C405        C643   1.484       .  S
O406        C412   1.269       .  A
O406       Cd409   2.529       .  S
C407        O415   1.267       .  A
C407        C620   1.485       .  S
C408        O413   1.269       .  A
C408        O411   1.264       .  A
C408        C573   1.478       .  S
Cd409       O416   2.405       .  S
Cd409       O415   2.454   1_556  S
Cd409       O414   2.478       .  S
Cd409       O410   2.462       .  S
Cd409       O413   2.496       .  S
Cd409       O411   2.402       .  S
C412        O416   1.262       .  A
C412        C513   1.485       .  S
O417        C420   1.267       .  A
O417       Cd422   2.465   1_554  S
C418        O427   1.267       .  A
C418        O423   1.268       .  A
C418        C673   1.487       .  S
O419        C425   1.271       .  A
O419       Cd422   2.512       .  S
C420        O428   1.266       .  A
C420        C713   1.486       .  S
C421        O426   1.270       .  A
C421        O424   1.262       .  A
C421        C480   1.480       .  S
Cd422       O429   2.406       .  S
Cd422       O428   2.475   1_556  S
Cd422       O427   2.473       .  S
Cd422       O423   2.475       .  S
Cd422       O426   2.520       .  S
Cd422       O424   2.392       .  S
C425        O429   1.264       .  A
C425        C490   1.481       .  S
O430        C433   1.267       .  A
O430       Cd435   2.466       .  S
C431        O440   1.267       .  A
C431        O436   1.268       .  A
C431        C600   1.483       .  S
O432        C438   1.270       .  A
O432       Cd435   2.509       .  S
C433        O441   1.266       .  A
C433        C593   1.485       .  S
C434        O439   1.271       .  A
C434        O437   1.263   1_556  A
C434        C523   1.480       .  S
Cd435       O442   2.408       .  S
Cd435       O441   2.468       .  S
Cd435       O440   2.471   1_556  S
Cd435       O436   2.459   1_556  S
Cd435       O439   2.521       .  S
Cd435       O437   2.392   1_556  S
C438        O442   1.263       .  A
C438        C493   1.481       .  S
O443        C446   1.268       .  A
O443       Cd448   2.463       .  S
C444        O453   1.267       .  A
C444        O449   1.269       .  A
C444        C973   1.486       .  S
O445        C451   1.271       .  A
O445       Cd448   2.536       .  S
C446        O454   1.266       .  A
C446       C1013   1.484       .  S
C447        O452   1.271       .  A
C447        O450   1.264       .  A
C447        C483   1.480       .  S
Cd448       O455   2.397       .  S
Cd448       O454   2.471       .  S
Cd448       O453   2.460   1_556  S
Cd448       O449   2.471   1_556  S
Cd448       O452   2.507       .  S
Cd448       O450   2.391       .  S
C451        O455   1.264       .  A
C451        C470   1.488       .  S
O456        C459   1.267       .  A
O456       Cd461   2.489   1_554  S
C457        O466   1.267       .  A
C457        O462   1.269       .  A
C457       C1093   1.485       .  S
O458        C464   1.271       .  A
O458       Cd461   2.538       .  S
C459        O467   1.266       .  A
C459       C1073   1.486       .  S
C460        O465   1.270       .  A
C460        O463   1.263       .  A
C460        C503   1.483       .  S
Cd461       O468   2.416       .  S
Cd461       O467   2.463   1_556  S
Cd461       O466   2.456       .  S
Cd461       O462   2.467       .  S
Cd461       O465   2.532       .  S
Cd461       O463   2.413       .  S
C464        O468   1.263       .  A
C464        C473   1.491       .  S
C469        C470   1.404       .  A
C469        C474   1.390       .  A
C469        H476   1.082       .  S
C470        C471   1.410       .  A
C471        C472   1.411       .  A
C471        F478   1.357       .  S
C472        C473   1.410       .  A
C472        H477   1.079       .  S
C473        C474   1.409       .  A
C474        F475   1.358       .  S
C479        C480   1.407       .  A
C479        C484   1.406       .  A
C479        H486   1.083       .  S
C480        C481   1.407       .  A
C481        C482   1.389       .  A
C481        F488   1.358       .  S
C482        C483   1.403       .  A
C482        H487   1.084       .  S
C483        C484   1.408       .  A
C484        F485   1.357       .  S
C489        C490   1.407       .  A
C489        C494   1.406       .  A
C489        H496   1.081   1_556  S
C490        C491   1.407       .  A
C491        C492   1.392       .  A
C491        F498   1.358       .  S
C492        C493   1.404       .  A
C492        H497   1.083       .  S
C493        C494   1.408       .  A
C494        F495   1.357   1_556  S
C499        C500   1.408       .  A
C499        C504   1.408   1_655  A
C499        H506   1.082   1_556  S
C500        C501   1.408       .  A
C501        C502   1.392   1_655  A
C501        F508   1.358       .  S
C502        C503   1.403       .  A
C502        H507   1.084       .  S
C503        C504   1.409       .  A
C504        F505   1.357   1_556  S
C509        C510   1.403       .  A
C509        C514   1.392       .  A
C509        H516   1.083       .  S
C510        C511   1.411       .  A
C511        C512   1.408       .  A
C511        F518   1.357       .  S
C512        C513   1.408       .  A
C512        H517   1.081       .  S
C513        C514   1.408       .  A
C514        F515   1.358       .  S
C519        C520   1.402   1_554  A
C519        C524   1.390   1_565  A
C519        H526   1.084       .  S
C520        C521   1.410       .  A
C521        C522   1.407   1_565  A
C521        F528   1.357       .  S
C522        C523   1.407       .  A
C522        H527   1.083       .  S
C523        C524   1.406   1_556  A
C524        F525   1.358       .  S
C529        C530   1.404       .  A
C529        C534   1.390       .  A
C529        H536   1.083       .  S
C530        C531   1.410       .  A
C531        C532   1.407       .  A
C531        F538   1.357       .  S
C532        C533   1.408       .  A
C532        H537   1.081       .  S
C533        C534   1.408       .  A
C534        F535   1.358       .  S
C539        C540   1.408   1_455  A
C539        C544   1.408       .  A
C539        H546   1.083   1_556  S
C540        C541   1.410   1_655  A
C541        C542   1.391       .  A
C541        F548   1.358   1_455  S
C542        C543   1.402       .  A
C542        H547   1.084       .  S
C543        C544   1.410       .  A
C544        F545   1.357   1_556  S
C549        C550   1.404   1_554  A
C549        C554   1.394       .  A
C549        H556   1.083       .  S
C550        C551   1.410       .  A
C551        C552   1.410       .  A
C551        F558   1.357       .  S
C552        C553   1.409       .  A
C552        H557   1.082       .  S
C553        C554   1.409   1_556  A
C554        F555   1.358       .  S
C559        C560   1.404       .  A
C559        C564   1.392       .  A
C559        H566   1.084       .  S
C560        C561   1.408       .  A
C561        C562   1.407       .  A
C561        F568   1.357   1_556  S
C562        C563   1.408       .  A
C562        H567   1.082   1_556  S
C563        C564   1.409       .  A
C564        F565   1.358       .  S
C569        C570   1.406   1_545  A
C569        C574   1.405       .  A
C569        H576   1.083   1_545  S
C570        C571   1.409       .  A
C571        C572   1.388   1_565  A
C571        F578   1.358   1_556  S
C572        C573   1.402       .  A
C572        H577   1.083   1_556  S
C573        C574   1.409       .  A
C574        F575   1.357       .  S
C579        C580   1.403       .  A
C579        C584   1.389       .  A
C579        H586   1.083       .  S
C580        C581   1.410       .  A
C581        C582   1.411       .  A
C581        F588   1.357       .  S
C582        C583   1.410       .  A
C582        H587   1.081       .  S
C583        C584   1.408       .  A
C584        F585   1.358       .  S
C589        C590   1.407       .  A
C589        C594   1.397       .  A
C589        H596   1.081       .  S
C590        C591   1.407       .  A
C591        C592   1.402       .  A
C591        F598   1.357       .  S
C592        C593   1.408       .  A
C592        H597   1.080       .  S
C593        C594   1.407       .  A
C594        F595   1.358       .  S
C599        C600   1.403       .  A
C599        C604   1.396       .  A
C599        H606   1.083       .  S
C600        C601   1.410       .  A
C601        C602   1.402       .  A
C601        F608   1.357       .  S
C602        C603   1.406       .  A
C602        H607   1.084       .  S
C603        C604   1.409       .  A
C604        F605   1.357       .  S
C609        C610   1.404       .  A
C609        C614   1.395       .  A
C609        H616   1.084       .  S
C610        C611   1.409       .  A
C611        C612   1.406       .  A
C611        F618   1.357       .  S
C612        C613   1.407       .  A
C612        H617   1.084       .  S
C613        C614   1.409       .  A
C614        F615   1.358       .  S
C619        C620   1.407       .  A
C619        C624   1.400       .  A
C619        H626   1.081       .  S
C620        C621   1.408       .  A
C621        C622   1.401       .  A
C621        F628   1.358       .  S
C622        C623   1.407       .  A
C622        H627   1.082       .  S
C623        C624   1.407       .  A
C624        F625   1.357       .  S
C629        C630   1.405       .  A
C629        C634   1.399       .  A
C629        H636   1.082       .  S
C630        C631   1.409       .  A
C631        C632   1.398       .  A
C631        F638   1.358       .  S
C632        C633   1.405       .  A
C632        H637   1.083       .  S
C633        C634   1.408       .  A
C634        F635   1.357       .  S
C639        C640   1.405       .  A
C639        C644   1.401       .  A
C639        H646   1.083       .  S
C640        C641   1.410       .  A
C641        C642   1.398       .  A
C641        F648   1.358       .  S
C642        C643   1.404       .  A
C642        H647   1.083       .  S
C643        C644   1.409       .  A
C644        F645   1.357       .  S
C649        C650   1.408       .  A
C649        C654   1.408       .  A
C649        H656   1.083       .  S
C650        C651   1.409       .  A
C651        C652   1.397       .  A
C651        F658   1.358       .  S
C652        C653   1.405       .  A
C652        H657   1.084       .  S
C653        C654   1.409       .  A
C654        F655   1.357       .  S
C659        C660   1.406       .  A
C659        C664   1.398       .  A
C659        H666   1.082       .  S
C660        C661   1.406       .  A
C661        C662   1.393       .  A
C661        F668   1.357       .  S
C662        C663   1.404       .  A
C662        H667   1.082       .  S
C663        C664   1.408       .  A
C664        F665   1.358       .  S
C669        C670   1.404       .  A
C669        C674   1.400       .  A
C669        H676   1.083       .  S
C670        C671   1.410       .  A
C671        C672   1.400       .  A
C671        F678   1.358       .  S
C672        C673   1.406       .  A
C672        H677   1.083       .  S
C673        C674   1.410       .  A
C674        F675   1.357       .  S
C679        C680   1.405       .  A
C679        C684   1.392       .  A
C679        H686   1.083       .  S
C680        C681   1.408       .  A
C681        C682   1.400       .  A
C681        F688   1.357       .  S
C682        C683   1.406       .  A
C682        H687   1.083       .  S
C683        C684   1.406       .  A
C684        F685   1.358       .  S
C689        C690   1.405       .  A
C689        C694   1.401       .  A
C689        H696   1.083       .  S
C690        C691   1.411       .  A
C691        C692   1.400       .  A
C691        F698   1.357       .  S
C692        C693   1.404       .  A
C692        H697   1.083       .  S
C693        C694   1.410       .  A
C694        F695   1.357       .  S
C699        C700   1.405       .  A
C699        C704   1.398       .  A
C699        H706   1.082       .  S
C700        C701   1.409       .  A
C701        C702   1.396       .  A
C701        F708   1.357       .  S
C702        C703   1.404       .  A
C702        H707   1.082       .  S
C703        C704   1.409       .  A
C704        F705   1.358       .  S
C709        C710   1.405       .  A
C709        C714   1.397       .  A
C709        H716   1.082       .  S
C710        C711   1.408       .  A
C711        C712   1.403       .  A
C711        F718   1.358       .  S
C712        C713   1.408       .  A
C712        H717   1.081       .  S
C713        C714   1.408       .  A
C714        F715   1.357       .  S
C719        C720   1.404       .  A
C719        C724   1.395       .  A
C719        H726   1.084       .  S
C720        C721   1.410       .  A
C721        C722   1.408       .  A
C721        F728   1.357       .  S
C722        C723   1.407       .  A
C722        H727   1.084       .  S
C723        C724   1.408       .  A
C724        F725   1.358       .  S
C729        C730   1.403       .  A
C729        C734   1.391       .  A
C729        H736   1.082       .  S
C730        C731   1.408       .  A
C731        C732   1.401       .  A
C731        F738   1.358       .  S
C732        C733   1.406       .  A
C732        H737   1.083       .  S
C733        C734   1.407       .  A
C734        F735   1.357       .  S
C739        C740   1.404       .  A
C739        C744   1.397       .  A
C739        H746   1.083       .  S
C740        C741   1.411       .  A
C741        C742   1.403       .  A
C741        F748   1.357       .  S
C742        C743   1.405       .  A
C742        H747   1.083       .  S
C743        C744   1.409       .  A
C744        F745   1.358       .  S
C749        C750   1.406       .  A
C749        C754   1.403       .  A
C749        H756   1.083       .  S
C750        C751   1.409       .  A
C751        C752   1.397       .  A
C751        F758   1.358       .  S
C752        C753   1.406       .  A
C752        H757   1.084       .  S
C753        C754   1.408       .  A
C754        F755   1.357       .  S
C759        C760   1.404       .  A
C759        C764   1.397       .  A
C759        H766   1.082       .  S
C760        C761   1.409       .  A
C761        C762   1.400       .  A
C761        F768   1.358       .  S
C762        C763   1.406       .  A
C762        H767   1.082       .  S
C763        C764   1.408       .  A
C764        F765   1.357       .  S
C769        C770   1.408       .  A
C769        C774   1.402       .  A
C769        H776   1.082       .  S
C770        C771   1.408       .  A
C771        C772   1.404       .  A
C771        F778   1.357       .  S
C772        C773   1.408       .  A
C772        H777   1.081       .  S
C773        C774   1.409       .  A
C774        F775   1.357       .  S
C779        C780   1.407       .  A
C779        C784   1.404       .  A
C779        H786   1.082       .  S
C780        C781   1.408       .  A
C781        C782   1.393       .  A
C781        F788   1.357       .  S
C782        C783   1.403       .  A
C782        H787   1.083       .  S
C783        C784   1.409       .  A
C784        F785   1.357       .  S
C789        C790   1.407       .  A
C789        C794   1.400       .  A
C789        H796   1.081       .  S
C790        C791   1.407       .  A
C791        C792   1.397       .  A
C791        F798   1.357       .  S
C792        C793   1.407       .  A
C792        H797   1.081       .  S
C793        C794   1.406       .  A
C794        F795   1.357       .  S
C799        C800   1.404       .  A
C799        C804   1.393       .  A
C799        H806   1.083       .  S
C800        C801   1.408       .  A
C801        C802   1.401       .  A
C801        F808   1.357       .  S
C802        C803   1.407       .  A
C802        H807   1.083       .  S
C803        C804   1.408       .  A
C804        F805   1.357       .  S
C809        C810   1.406       .  A
C809        C814   1.399       .  A
C809        H816   1.082       .  S
C810        C811   1.408       .  A
C811        C812   1.399       .  A
C811        F818   1.357       .  S
C812        C813   1.405       .  A
C812        H817   1.081       .  S
C813        C814   1.409       .  A
C814        F815   1.357       .  S
C819        C820   1.405       .  A
C819        C824   1.402       .  A
C819        H826   1.083       .  S
C820        C821   1.409       .  A
C821        C822   1.400       .  A
C821        F828   1.357       .  S
C822        C823   1.405       .  A
C822        H827   1.083       .  S
C823        C824   1.411       .  A
C824        F825   1.357       .  S
C829        C830   1.407       .  A
C829        C834   1.405       .  A
C829        H836   1.084       .  S
C830        C831   1.407       .  A
C831        C832   1.398       .  A
C831        F838   1.358       .  S
C832        C833   1.406       .  A
C832        H837   1.084       .  S
C833        C834   1.410       .  A
C834        F835   1.357       .  S
C839        C840   1.405       .  A
C839        C844   1.398       .  A
C839        H846   1.083       .  S
C840        C841   1.407       .  A
C841        C842   1.395       .  A
C841        F848   1.358       .  S
C842        C843   1.405       .  A
C842        H847   1.083       .  S
C843        C844   1.408       .  A
C844        F845   1.357       .  S
C849        C850   1.406       .  A
C849        C854   1.400       .  A
C849        H856   1.081       .  S
C850        C851   1.409       .  A
C851        C852   1.404       .  A
C851        F858   1.357       .  S
C852        C853   1.408       .  A
C852        H857   1.081       .  S
C853        C854   1.409       .  A
C854        F855   1.357       .  S
C859        C860   1.403       .  A
C859        C864   1.391       .  A
C859        H866   1.083       .  S
C860        C861   1.408       .  A
C861        C862   1.401       .  A
C861        F868   1.357       .  S
C862        C863   1.406       .  A
C862        H867   1.082       .  S
C863        C864   1.407       .  A
C864        F865   1.358       .  S
C869        C870   1.402       .  A
C869        C874   1.395       .  A
C869        H876   1.085       .  S
C870        C871   1.407       .  A
C871        C872   1.404       .  A
C871        F878   1.357       .  S
C872        C873   1.407       .  A
C872        H877   1.083       .  S
C873        C874   1.410       .  A
C874        F875   1.358       .  S
C879        C880   1.405       .  A
C879        C884   1.399       .  A
C879        H886   1.082       .  S
C880        C881   1.410       .  A
C881        C882   1.402       .  A
C881        F888   1.357       .  S
C882        C883   1.406       .  A
C882        H887   1.082       .  S
C883        C884   1.409       .  A
C884        F885   1.357       .  S
C889        C890   1.404       .  A
C889        C894   1.401       .  A
C889        H896   1.082       .  S
C890        C891   1.409       .  A
C891        C892   1.395       .  A
C891        F898   1.358       .  S
C892        C893   1.403       .  A
C892        H897   1.083       .  S
C893        C894   1.410       .  A
C894        F895   1.357       .  S
C899        C900   1.403       .  A
C899        C904   1.399       .  A
C899        H906   1.083       .  S
C900        C901   1.410       .  A
C901        C902   1.403       .  A
C901        F908   1.357       .  S
C902        C903   1.405       .  A
C902        H907   1.083       .  S
C903        C904   1.412       .  A
C904        F905   1.358       .  S
C909        C910   1.404       .  A
C909        C914   1.397       .  A
C909        H916   1.083       .  S
C910        C911   1.407       .  A
C911        C912   1.394       .  A
C911        F918   1.358       .  S
C912        C913   1.404       .  A
C912        H917   1.083       .  S
C913        C914   1.408       .  A
C914        F915   1.357       .  S
C919        C920   1.407       .  A
C919        C924   1.400       .  A
C919        H926   1.081       .  S
C920        C921   1.407       .  A
C921        C922   1.397       .  A
C921        F928   1.358       .  S
C922        C923   1.407       .  A
C922        H927   1.082       .  S
C923        C924   1.406       .  A
C924        F925   1.357       .  S
C929        C930   1.407       .  A
C929        C934   1.409       .  A
C929        H936   1.084       .  S
C930        C931   1.405       .  A
C931        C932   1.389       .  A
C931        F938   1.358       .  S
C932        C933   1.403       .  A
C932        H937   1.085       .  S
C933        C934   1.410       .  A
C934        F935   1.357       .  S
C939        C940   1.406       .  A
C939        C944   1.396       .  A
C939        H946   1.082       .  S
C940        C941   1.407       .  A
C941        C942   1.403       .  A
C941        F948   1.357       .  S
C942        C943   1.408       .  A
C942        H947   1.082       .  S
C943        C944   1.408       .  A
C944        F945   1.357       .  S
C949        C950   1.404       .  A
C949        C954   1.395       .  A
C949        H956   1.084       .  S
C950        C951   1.409       .  A
C951        C952   1.407       .  A
C951        F958   1.357       .  S
C952        C953   1.408       .  A
C952        H957   1.083       .  S
C953        C954   1.410       .  A
C954        F955   1.358       .  S
C959        C960   1.405       .  A
C959        C964   1.396       .  A
C959        H966   1.082       .  S
C960        C961   1.407       .  A
C961        C962   1.397       .  A
C961        F968   1.357       .  S
C962        C963   1.405       .  A
C962        H967   1.082       .  S
C963        C964   1.408       .  A
C964        F965   1.358       .  S
C969        C970   1.405       .  A
C969        C974   1.402       .  A
C969        H976   1.083       .  S
C970        C971   1.409       .  A
C971        C972   1.398       .  A
C971        F978   1.357       .  S
C972        C973   1.404       .  A
C972        H977   1.083       .  S
C973        C974   1.410       .  A
C974        F975   1.357       .  S
C979        C980   1.407       .  A
C979        C984   1.399       .  A
C979        H986   1.081       .  S
C980        C981   1.408       .  A
C981        C982   1.403       .  A
C981        F988   1.357       .  S
C982        C983   1.408       .  A
C982        H987   1.081       .  S
C983        C984   1.408       .  A
C984        F985   1.357       .  S
C989        C990   1.404       .  A
C989        C994   1.393       .  A
C989        H996   1.083       .  S
C990        C991   1.408       .  A
C991        C992   1.399       .  A
C991        F998   1.357       .  S
C992        C993   1.405       .  A
C992        H997   1.083       .  S
C993        C994   1.406       .  A
C994        F995   1.358       .  S
C999       C1000   1.407       .  A
C999       C1004   1.402       .  A
C999       H1006   1.083       .  S
C1000      C1001   1.408       .  A
C1001      C1002   1.396       .  A
C1001      F1008   1.357       .  S
C1002      C1003   1.405       .  A
C1002      H1007   1.082       .  S
C1003      C1004   1.409       .  A
C1004      F1005   1.357       .  S
C1009      C1010   1.405       .  A
C1009      C1014   1.402       .  A
C1009      H1016   1.084       .  S
C1010      C1011   1.409       .  A
C1011      C1012   1.396       .  A
C1011      F1018   1.358       .  S
C1012      C1013   1.404       .  A
C1012      H1017   1.083       .  S
C1013      C1014   1.411       .  A
C1014      F1015   1.357       .  S
C1019      C1020   1.403       .  A
C1019      C1024   1.393       .  A
C1019      H1026   1.084       .  S
C1020      C1021   1.410       .  A
C1021      C1022   1.406       .  A
C1021      F1028   1.357       .  S
C1022      C1023   1.406       .  A
C1022      H1027   1.084       .  S
C1023      C1024   1.408       .  A
C1024      F1025   1.358       .  S
C1029      C1030   1.405       .  A
C1029      C1034   1.395       .  A
C1029      H1036   1.083       .  S
C1030      C1031   1.408       .  A
C1031      C1032   1.404       .  A
C1031      F1038   1.357       .  S
C1032      C1033   1.408       .  A
C1032      H1037   1.083       .  S
C1033      C1034   1.407       .  A
C1034      F1035   1.357       .  S
C1039      C1040   1.404       .  A
C1039      C1044   1.398       .  A
C1039      H1046   1.083       .  S
C1040      C1041   1.409       .  A
C1041      C1042   1.397       .  A
C1041      F1048   1.358       .  S
C1042      C1043   1.404       .  A
C1042      H1047   1.083       .  S
C1043      C1044   1.408       .  A
C1044      F1045   1.357       .  S
C1049      C1050   1.403       .  A
C1049      C1054   1.391       .  A
C1049      H1056   1.084       .  S
C1050      C1051   1.409       .  A
C1051      C1052   1.407       .  A
C1051      F1058   1.357       .  S
C1052      C1053   1.407       .  A
C1052      H1057   1.083       .  S
C1053      C1054   1.406       .  A
C1054      F1055   1.358       .  S
C1059      C1060   1.404       .  A
C1059      C1064   1.394       .  A
C1059      H1066   1.082       .  S
C1060      C1061   1.409       .  A
C1061      C1062   1.401       .  A
C1061      F1068   1.358       .  S
C1062      C1063   1.407       .  A
C1062      H1067   1.083       .  S
C1063      C1064   1.407       .  A
C1064      F1065   1.357       .  S
C1069      C1070   1.408       .  A
C1069      C1074   1.401       .  A
C1069      H1076   1.082       .  S
C1070      C1071   1.406       .  A
C1071      C1072   1.399       .  A
C1071      F1078   1.357       .  S
C1072      C1073   1.407       .  A
C1072      H1077   1.081       .  S
C1073      C1074   1.409       .  A
C1074      F1075   1.358       .  S
C1079      C1080   1.406       .  A
C1079      C1084   1.402       .  A
C1079      H1086   1.082       .  S
C1080      C1081   1.407       .  A
C1081      C1082   1.396       .  A
C1081      F1088   1.358       .  S
C1082      C1083   1.405       .  A
C1082      H1087   1.082       .  S
C1083      C1084   1.409       .  A
C1084      F1085   1.357       .  S
C1089      C1090   1.405       .  A
C1089      C1094   1.401       .  A
C1089      H1096   1.083       .  S
C1090      C1091   1.409       .  A
C1091      C1092   1.399       .  A
C1091      F1098   1.357       .  S
C1092      C1093   1.405       .  A
C1092      H1097   1.083       .  S
C1093      C1094   1.410       .  A
C1094      F1095   1.357       .  S
C1099      C1100   1.406       .  A
C1099      C1104   1.401       .  A
C1099      H1106   1.083       .  S
C1100      C1101   1.407       .  A
C1101      C1102   1.393       .  A
C1101      F1108   1.358       .  S
C1102      C1103   1.404       .  A
C1102      H1107   1.083       .  S
C1103      C1104   1.409       .  A
C1104      F1105   1.357       .  S
C1109      C1110   1.404       .  A
C1109      C1114   1.397       .  A
C1109      H1116   1.085       .  S
C1110      C1111   1.410       .  A
C1111      C1112   1.406       .  A
C1111      F1118   1.357       .  S
C1112      C1113   1.407       .  A
C1112      H1117   1.084       .  S
C1113      C1114   1.408       .  A
C1114      F1115   1.357       .  S
C1119      C1120   1.407       .  A
C1119      C1124   1.399       .  A
C1119      H1126   1.082       .  S
C1120      C1121   1.406       .  A
C1121      C1122   1.399       .  A
C1121      F1128   1.357       .  S
C1122      C1123   1.407       .  A
C1122      H1127   1.082       .  S
C1123      C1124   1.408       .  A
C1124      F1125   1.358       .  S
C1129      C1130   1.405       .  A
C1129      C1134   1.399       .  A
C1129      H1136   1.082       .  S
C1130      C1131   1.407       .  A
C1131      C1132   1.394       .  A
C1131      F1138   1.357       .  S
C1132      C1133   1.404       .  A
C1132      H1137   1.082       .  S
C1133      C1134   1.409       .  A
C1134      F1135   1.358       .  S
C1139      C1140   1.405       .  A
C1139      C1144   1.394       .  A
C1139      H1146   1.083       .  S
C1140      C1141   1.408       .  A
C1141      C1142   1.398       .  A
C1141      F1148   1.357       .  S
C1142      C1143   1.406       .  A
C1142      H1147   1.083       .  S
C1143      C1144   1.407       .  A
C1144      F1145   1.358       .  S
C1149      C1150   1.405       .  A
C1149      C1154   1.397       .  A
C1149      H1156   1.082       .  S
C1150      C1151   1.406       .  A
C1151      C1152   1.399       .  A
C1151      F1158   1.357       .  S
C1152      C1153   1.407       .  A
C1152      H1157   1.081       .  S
C1153      C1154   1.407       .  A
C1154      F1155   1.357       .  S
C1159      C1160   1.407       .  A
C1159      C1164   1.405       .  A
C1159      H1166   1.084       .  S
C1160      C1161   1.407       .  A
C1161      C1162   1.394       .  A
C1161      F1168   1.358       .  S
C1162      C1163   1.403       .  A
C1162      H1167   1.084       .  S
C1163      C1164   1.407       .  A
C1164      F1165   1.357       .  S
C1169      C1170   1.405       .  A
C1169      C1174   1.396       .  A
C1169      H1176   1.082       .  S
C1170      C1171   1.407       .  A
C1171      C1172   1.396       .  A
C1171      F1178   1.358       .  S
C1172      C1173   1.406       .  A
C1172      H1177   1.083       .  S
C1173      C1174   1.407       .  A
C1174      F1175   1.357       .  S
C1179      C1180   1.406       .  A
C1179      C1184   1.400       .  A
C1179      H1186   1.083       .  S
C1180      C1181   1.408       .  A
C1181      C1182   1.393       .  A
C1181      F1188   1.357       .  S
C1182      C1183   1.403       .  A
C1182      H1187   1.083       .  S
C1183      C1184   1.409       .  A
C1184      F1185   1.358       .  S
