geometry optimzed in LAMMPS
_audit_creation_date              2020-11-30 
_audit_creation_method            'lammps2cif' 
_symmetry_space_group_name_H-M    'P1' 
_symmetry_Int_Tables_number       1 
_symmetry_cell_setting            triclinic 
loop_ 
_symmetry_equiv_pos_as_xyz 
  x,y,z 
_cell_length_a                    38.130788018048506 
_cell_length_b                    38.827776354352935 
_cell_length_c                    38.43340082098213 
_cell_angle_alpha                 90.97091816588693 
_cell_angle_beta                  88.40844194096582 
_cell_angle_gamma                 88.84078426941166 
loop_ 
_atom_site_label 
_atom_site_type_symbol 
_atom_site_fract_x 
_atom_site_fract_y 
_atom_site_fract_z 
_atom_site_charge 
O1          O  0.48409545  0.84233969  0.76204078    -0.86210
O2          O  0.52267942  0.86730046  0.70318314    -0.83250
C3          C  0.52171312  0.87681351  0.67060875     0.97260
O4          O  0.50425105  0.90397182  0.66427286    -0.83290
O5          O  0.43633106  0.92712004  0.66574689    -0.85930
C6          C  0.42351750  0.90007110  0.65380255     1.01780
O7          O  0.42362941  0.87184968  0.67035111    -0.78690
O8          O  0.44751331  0.82451459  0.72164095    -0.78880
C9          C  0.46961006  0.81842057  0.74540653     1.01730
O10         O  0.45428487  0.90811622  0.78565378    -0.86200
O11         O  0.53060079  0.89738427  0.77249839    -0.83270
C12         C  0.53630831  0.92525001  0.75611166     0.97280
O13         O  0.51599764  0.93581566  0.73160514    -0.83290
O14         O  0.44150120  0.95216653  0.73379242    -0.85900
C15         C  0.40905051  0.94628998  0.73091691     1.01750
O16         O  0.39788364  0.91594985  0.72422509    -0.78720
O17         O  0.41877218  0.86759173  0.77231736    -0.78870
C18         C  0.42402437  0.89351532  0.79098891     1.01710
Cr19       Cr  0.49092319  0.88883113  0.74558590     1.93740
Cr20       Cr  0.47341903  0.92832746  0.69985040     1.93210
Cr21       Cr  0.42249258  0.87024514  0.72120810     1.39100
O22         O  0.46128338  0.88983965  0.71812759    -1.23960
O23         O  0.52528762  0.07378904  0.74584422    -0.86210
O24         O  0.45579997  0.09367088  0.71285828    -0.83250
C25         C  0.42276020  0.10418686  0.71407897     0.97260
O26         O  0.41381490  0.12654406  0.73717753    -0.83290
O27         O  0.41097524  0.09049412  0.79462169    -0.85930
C28         C  0.42347657  0.06740189  0.81333699     1.01780
O29         O  0.44739105  0.07410705  0.83353356    -0.78690
O30         O  0.49306369  0.04884830  0.78482145    -0.78880
C31         C  0.51855372  0.04753607  0.76375212     1.01730
O32         O  0.53206040  0.14657221  0.77287490    -0.86200
O33         O  0.47576719  0.16206061  0.72676342    -0.83270
C34         C  0.46075820  0.18642714  0.74327734     0.97280
O35         O  0.44685329  0.18165693  0.77287381    -0.83290
O36         O  0.43949267  0.14838584  0.83470866    -0.85900
C37         C  0.46887944  0.15051339  0.84912013     1.01750
O38         O  0.49161444  0.12734895  0.84665472    -0.78720
O39         O  0.54078150  0.10226405  0.80420258    -0.78870
C40         C  0.54576518  0.13392368  0.80056246     1.01710
Cr41       Cr  0.49649801  0.11827915  0.74163741     1.93740
Cr42       Cr  0.43074374  0.13520350  0.78546416     1.93210
Cr43       Cr  0.49148589  0.08949712  0.81480130     1.39100
O44         O  0.47247102  0.11447927  0.78054535    -1.23960
O45         O  0.42979562  0.41471331  0.71325803    -0.86210
O46         O  0.50024918  0.39351184  0.68225167    -0.83250
C47         C  0.53434314  0.38829027  0.68409579     0.97260
O48         O  0.54446310  0.37151897  0.70987633    -0.83290
O49         O  0.54650450  0.38901133  0.77658996    -0.85930
C50         C  0.54956295  0.42123002  0.77922765     1.01780
O51         O  0.52483990  0.44292543  0.77349273    -0.78690
O52         O  0.45718290  0.45504970  0.74336081    -0.78880
C53         C  0.43326128  0.44578498  0.72276876     1.01730
O54         O  0.43022108  0.36018968  0.76468057    -0.86200
O55         O  0.44183496  0.34503405  0.69167507    -0.83270
C56         C  0.46093032  0.32031510  0.70265409     0.97280
O57         O  0.48617340  0.32531184  0.72401525    -0.83290
O58         O  0.49004963  0.34808115  0.79447750    -0.85900
C59         C  0.49644840  0.36697349  0.82032892     1.01750
O60         O  0.49301802  0.39934740  0.81920459    -0.78720
O61         O  0.42816864  0.41030737  0.79205809    -0.78870
C62         C  0.41999296  0.37892865  0.79179439     1.01710
Cr63       Cr  0.46334696  0.37647010  0.72206959     1.93740
Cr64       Cr  0.51537649  0.36019893  0.75175978     1.93210
Cr65       Cr  0.47625391  0.42640317  0.78021593     1.39100
O66         O  0.48754049  0.39549558  0.74899879    -1.23960
O67         O  0.50324543  0.65830823  0.76200951    -0.86210
O68         O  0.46955631  0.62717532  0.70364759    -0.83250
C69         C  0.47424352  0.62969762  0.66958644     0.97260
O70         O  0.50245314  0.61849682  0.65455500    -0.83290
O71         O  0.57711822  0.61238627  0.65257313    -0.85930
C72         C  0.57009950  0.64333222  0.64850638     1.01780
O73         O  0.57027396  0.66195715  0.67523974    -0.78690
O74         O  0.54978952  0.68094662  0.73813821    -0.78880
C75         C  0.52164848  0.68382743  0.75548964     1.01730
O76         O  0.53922871  0.59300996  0.78219428    -0.86200
O77         O  0.49370068  0.56162043  0.73727360    -0.83270
C78         C  0.48255046  0.55102938  0.70905648     0.97280
O79         O  0.49810101  0.55910788  0.68196620    -0.83290
O80         O  0.57069940  0.55723665  0.69862350    -0.85900
C81         C  0.59778060  0.57005246  0.71176646     1.01750
O82         O  0.60599167  0.60096668  0.70569724    -0.78720
O83         O  0.58532659  0.62427440  0.76919123    -0.78870
C84         C  0.57142202  0.60152317  0.78783169     1.01710
Cr85       Cr  0.50385776  0.61058811  0.74424879     1.93740
Cr86       Cr  0.53818045  0.58820240  0.67476487     1.93210
Cr87       Cr  0.57548067  0.64015987  0.72123506     1.39100
O88         O  0.53808913  0.61410713  0.71368963    -1.23960
O89         O  0.81820254  0.22079547  0.00929334    -0.86210
O90         O  0.84977926  0.27012799  0.96096239    -0.83250
C91         C  0.86793599  0.29652176  0.95121295     0.97260
O92         O  0.89433903  0.30070818  0.96908069    -0.83290
O93         O  0.83982795  0.33465532  0.00206304    -0.85930
C94         C  0.80997896  0.33326266  0.01673242     1.01780
O95         O  0.80603238  0.32216815  0.04758657    -0.78690
O96         O  0.78964767  0.25580839  0.04551242    -0.78880
C97         C  0.79053313  0.23007307  0.02542130     1.01730
O98         O  0.88194344  0.21419808  0.05121767    -0.86200
O99         O  0.91537212  0.24906927  0.99647582    -0.83270
C100        C  0.93598875  0.26236607  0.01753656     0.97280
O101        O  0.92729738  0.29021921  0.03396062    -0.83290
O102        O  0.87532298  0.34084451  0.06101131    -0.85900
C103        C  0.88037374  0.32665878  0.08894919     1.01750
O104        O  0.86253191  0.30142683  0.09671912    -0.78720
O105        O  0.84517191  0.23793213  0.09081822    -0.78870
C106        C  0.87083555  0.21778242  0.08361842     1.01710
Cr107      Cr  0.86555671  0.24048839  0.00561343     1.93740
Cr108      Cr  0.88309696  0.31423833  0.01814894     1.93210
Cr109      Cr  0.82805051  0.27992194  0.06719519     1.39100
O110        O  0.85849127  0.27760940  0.03099846    -1.23960
O111        O  0.55835648  0.23529790  0.03633580    -0.86210
O112        O  0.58467621  0.20691539  0.96542631    -0.83250
C113        C  0.59022832  0.21242567  0.93191422     0.97260
O114        O  0.60730450  0.23884388  0.92409623    -0.83290
O115        O  0.60494108  0.30833303  0.93043576    -0.85930
C116        C  0.57263389  0.31638886  0.92882595     1.01780
O117        O  0.55022616  0.30957547  0.95233617    -0.78690
O118        O  0.52666689  0.27674991  0.01163739    -0.78880
C119        C  0.52994303  0.25268355  0.03347781     1.01730
O120        O  0.62229243  0.27537231  0.04675264    -0.86200
O121        O  0.62666872  0.20318536  0.02720059    -0.83270
C122        C  0.65358676  0.20870065  0.00769205     0.97280
O123        O  0.65320583  0.23179425  0.98353399    -0.83290
O124        O  0.64311823  0.30185390  0.99380198    -0.85900
C125        C  0.63493004  0.33255890  0.98958879     1.01750
O126        O  0.60280665  0.34160771  0.98956378    -0.78720
O127        O  0.57623580  0.30878780  0.04917097    -0.78870
C128        C  0.60713594  0.30414717  0.05799108     1.01710
Cr129      Cr  0.60220538  0.24025822  0.00760094     1.93740
Cr130      Cr  0.62571631  0.27120719  0.95891986     1.93210
Cr131      Cr  0.56443245  0.30777395  0.99971859     1.39100
O132        O  0.58855264  0.27188279  0.98526525    -1.23960
O133        O  0.39117830  0.26860999  0.00387503    -0.86210
O134        O  0.35388848  0.31170356  0.95138683    -0.83250
C135        C  0.37631208  0.31570402  0.92558589     0.97260
O136        O  0.39455063  0.29034991  0.91835854    -0.83290
O137        O  0.41089088  0.23201215  0.89216400    -0.85930
C138        C  0.43520806  0.23211706  0.91410840     1.01780
O139        O  0.42900167  0.22077787  0.94377895    -0.78690
O140        O  0.39813831  0.21245534  0.00453377    -0.78880
C141        C  0.40416546  0.24178769  0.01729907     1.01730
O142        O  0.33398537  0.21985868  0.01252542    -0.86200
O143        O  0.29947679  0.25996009  0.96132426    -0.83270
C144        C  0.29305196  0.27578165  0.93391992     0.97280
O145        O  0.31688617  0.27924047  0.91036280    -0.83290
O146        O  0.33695090  0.21610132  0.88895217    -0.85900
C147        C  0.34527871  0.18588589  0.89589991     1.01750
O148        O  0.37458058  0.17971996  0.90972587    -0.78720
O149        O  0.34223356  0.17804375  0.97401376    -0.78870
C150        C  0.33382327  0.18688443  0.00475090     1.01710
Cr151      Cr  0.34560683  0.26415035  0.98085756     1.93740
Cr152      Cr  0.36462144  0.25357472  0.90448648     1.93210
Cr153      Cr  0.38499011  0.19953918  0.95670632     1.39100
O154        O  0.36364355  0.23833189  0.94743708    -1.23960
O155        O  0.06879599  0.22413530  0.03210196    -0.86210
O156        O  0.09441993  0.28768233  0.03767313    -0.83250
C157        C  0.10391082  0.28921285  0.07013092     0.97260
O158        O  0.12907025  0.27048309  0.07869450    -0.83290
O159        O  0.16835371  0.21452583  0.08323193    -0.85930
C160        C  0.14211542  0.19637848  0.09184838     1.01780
O161        O  0.12655168  0.17860042  0.06982170    -0.78690
O162        O  0.08424305  0.17322937  0.01364830    -0.78880
C163        C  0.06022732  0.19495890  0.02262656     1.01730
O164        O  0.10180800  0.20285591  0.96070181    -0.86200
O165        O  0.13517945  0.26833482  0.96916241    -0.83270
C166        C  0.15952587  0.28629053  0.98071048     0.97280
O167        O  0.16215396  0.29019224  0.01341811    -0.83290
O168        O  0.20289249  0.23259067  0.01546235    -0.85900
C169        C  0.20971902  0.20105507  0.01608535     1.01750
O170        O  0.18748634  0.18051283  0.02860298    -0.78720
O171        O  0.15165230  0.18010149  0.97309454    -0.78870
C172        C  0.12616575  0.17897598  0.95424909     1.01710
Cr173      Cr  0.10136192  0.24541296  0.00030765     1.93740
Cr174      Cr  0.16433316  0.25046523  0.04614092     1.93210
Cr175      Cr  0.13732416  0.18045917  0.02154113     1.39100
O176        O  0.13438512  0.22580206  0.02294623    -1.23960
O177        O  0.78468945  0.52432154  0.89161049    -0.86210
O178        O  0.79858615  0.44958524  0.88745307    -0.83250
C179        C  0.80707363  0.41976416  0.87299242     0.97260
O180        O  0.79451559  0.41433600  0.84377843    -0.83290
O181        O  0.73382063  0.39010552  0.87714502    -0.85930
C182        C  0.73345874  0.40068637  0.90851208     1.01780
O183        O  0.73987650  0.43124626  0.91590197    -0.78690
O184        O  0.73646631  0.50269166  0.91731219    -0.78880
C185        C  0.76183718  0.52417082  0.91696549     1.01730
O186        O  0.72293967  0.52421458  0.84994897    -0.86200
O187        O  0.78647730  0.48754446  0.82097037    -0.83270
C188        C  0.77756648  0.47040914  0.79384829     0.97280
O189        O  0.75467264  0.44696531  0.79530323    -0.83290
O190        O  0.69432119  0.42007666  0.82618995    -0.85900
C191        C  0.67014253  0.41884583  0.84951661     1.01750
O192        O  0.67511292  0.42808289  0.88049382    -0.78720
O193        O  0.67738654  0.49873149  0.87405834    -0.78870
C194        C  0.68886872  0.52304372  0.85558253     1.01710
Cr195      Cr  0.76162332  0.48747163  0.86809442     1.93740
Cr196      Cr  0.74369410  0.41948906  0.83615336     1.93210
Cr197      Cr  0.70830216  0.46389339  0.89541296     1.39100
O198        O  0.73450975  0.45778446  0.85833683    -1.23960
O199        O  0.72487164  0.47700597  0.40072832    -0.86210
O200        O  0.69501460  0.53997116  0.37205699    -0.83250
C201        C  0.69925729  0.57229247  0.36334926     0.97260
O202        O  0.72303651  0.57793491  0.34106757    -0.83290
O203        O  0.79344343  0.57493617  0.33953681    -0.85930
C204        C  0.79316601  0.58503411  0.37117357     1.01780
O205        O  0.79721743  0.56384153  0.39539735    -0.78690
O206        O  0.76394921  0.50817031  0.42889717    -0.78880
C207        C  0.73644774  0.48940555  0.42857995     1.01730
O208        O  0.76748908  0.45817322  0.33713122    -0.86200
O209        O  0.69287306  0.47205503  0.33716201    -0.83270
C210        C  0.69742756  0.48522186  0.30735925     0.97280
O211        O  0.71819130  0.51119521  0.30227690    -0.83290
O212        O  0.78925485  0.50886329  0.30581612    -0.85900
C213        C  0.82068766  0.51025428  0.31271839     1.01750
O214        O  0.83019690  0.51716789  0.34394823    -0.78720
O215        O  0.79941314  0.46369669  0.38235687    -0.78870
C216        C  0.79665269  0.45067776  0.35263973     1.01710
Cr217      Cr  0.72964674  0.49748491  0.35491424     1.93740
Cr218      Cr  0.75699103  0.54274791  0.32384093     1.93210
Cr219      Cr  0.79711529  0.51418588  0.38727583     1.39100
O220        O  0.76040795  0.52255595  0.36333352    -1.23960
O221        O  0.71004940  0.51408400  0.56053378    -0.86210
O222        O  0.77474662  0.53089951  0.58008402    -0.83250
C223        C  0.77393855  0.56475336  0.58072779     0.97260
O224        O  0.75223308  0.57938115  0.60087038    -0.83290
O225        O  0.69784879  0.59224859  0.64194744    -0.85930
C226        C  0.68023848  0.59201895  0.61435966     1.01780
O227        O  0.65964527  0.56800694  0.60902630    -0.78690
O228        O  0.65883056  0.50114660  0.58118251    -0.78880
C229        C  0.68179026  0.49984681  0.55629175     1.01730
O230        O  0.69316363  0.45614290  0.60994756    -0.86200
O231        O  0.76128925  0.47874411  0.63842918    -0.83270
C232        C  0.78109328  0.49890576  0.65457753     0.97280
O233        O  0.78190729  0.53019420  0.64610569    -0.83290
O234        O  0.72638041  0.53984406  0.68912561    -0.85900
C235        C  0.69515421  0.53512207  0.69747337     1.01750
O236        O  0.67084750  0.54446579  0.67727853    -0.78720
O237        O  0.66834705  0.48090328  0.65437509    -0.78870
C238        C  0.66774189  0.45623357  0.63379459     1.01710
Cr239      Cr  0.73450351  0.49545943  0.59849879     1.93740
Cr240      Cr  0.73797463  0.55892421  0.64399940     1.93210
Cr241      Cr  0.66677044  0.52429714  0.63017785     1.39100
O242        O  0.71317379  0.52633937  0.62415702    -1.23960
O243        O  0.73501831  0.50943256  0.07142244    -0.86210
O244        O  0.69192255  0.45823006  0.11522147    -0.83250
C245        C  0.68971126  0.42833962  0.09900451     0.97260
O246        O  0.71620090  0.41933377  0.08292990    -0.83290
O247        O  0.77574375  0.40151735  0.06305624    -0.85930
C248        C  0.76938010  0.42209910  0.03849722     1.01780
O249        O  0.78058980  0.45215390  0.03966575    -0.78690
O250        O  0.79104787  0.51487816  0.06932628    -0.78880
C251        C  0.76222043  0.52153047  0.05640977     1.01730
O252        O  0.78526569  0.52207136  0.13259024    -0.86200
O253        O  0.74357772  0.47492222  0.16784828    -0.83270
C254        C  0.72881252  0.44780297  0.17677806     0.97280
O255        O  0.73100253  0.42104651  0.15727009    -0.83290
O256        O  0.79988254  0.40475443  0.13486861    -0.85900
C257        C  0.82787024  0.41180802  0.11891710     1.01750
O258        O  0.82677813  0.42173874  0.08806925    -0.78720
O259        O  0.82913956  0.48528359  0.12093600    -0.78870
C260        C  0.81909416  0.51400010  0.13376011     1.01710
Cr261      Cr  0.73982878  0.49020765  0.12036812     1.93740
Cr262      Cr  0.75683179  0.41364059  0.11008020     1.93210
Cr263      Cr  0.80532428  0.46746314  0.08045313     1.39100
O264        O  0.76781055  0.45728305  0.10539095    -1.23960
O265        O  0.20181853  0.95032563  0.90446240    -0.86210
O266        O  0.18233058  0.02142544  0.89529350    -0.83250
C267        C  0.17078184  0.04806516  0.87845573     0.97260
O268        O  0.17936971  0.04959348  0.84649224    -0.83290
O269        O  0.24018131  0.08361591  0.85779008    -0.85930
C270        C  0.24222827  0.08591139  0.89072708     1.01780
O271        O  0.23794649  0.05974903  0.90936728    -0.78690
O272        O  0.24163624  0.98603438  0.92837083    -0.78880
C273        C  0.21982529  0.96023494  0.92994522     1.01730
O274        O  0.26202546  0.94913625  0.85986245    -0.86200
O275        O  0.19253284  0.96907879  0.83739225    -0.83270
C276        C  0.19923613  0.97699734  0.80633444     0.97280
O277        O  0.21605244  0.00382524  0.79839138    -0.83290
O278        O  0.27779631  0.03708154  0.81193326    -0.85900
C279        C  0.30268174  0.04035094  0.83297066     1.01750
O280        O  0.29651502  0.04963723  0.86415533    -0.78720
O281        O  0.30178132  0.98237500  0.88131365    -0.78870
C282        C  0.29504644  0.95485629  0.86534986     1.01710
Cr283      Cr  0.22050631  0.98389170  0.87699546     1.93740
Cr284      Cr  0.22876225  0.04267179  0.82898012     1.93210
Cr285      Cr  0.26814078  0.02019712  0.89465934     1.39100
O286        O  0.24175639  0.01386793  0.85969487    -1.23960
O287        O  0.26255895  0.01387542  0.34597755    -0.86210
O288        O  0.19666221  0.03335892  0.37931257    -0.83250
C289        C  0.16941144  0.03658897  0.35907962     0.97260
O290        O  0.16508762  0.01273392  0.33760811    -0.83290
O291        O  0.16575320  0.95038310  0.30792073    -0.85930
C292        C  0.18682837  0.95550376  0.28220563     1.01780
O293        O  0.21888753  0.95878872  0.28679951    -0.78690
O294        O  0.27977862  0.96507726  0.32158011    -0.78880
C295        C  0.27792637  0.99761797  0.32124709     1.01730
O296        O  0.27893741  0.95305047  0.39284242    -0.86200
O297        O  0.21351394  0.96984208  0.42196128    -0.83270
C298        C  0.18619275  0.98655034  0.42936286     0.97280
O299        O  0.16243787  0.98678611  0.40711909    -0.83290
O300        O  0.16743576  0.92123618  0.37602033    -0.85900
C301        C  0.18523445  0.89747289  0.36135515     1.01750
O302        O  0.19894165  0.90210091  0.33141591    -0.78720
O303        O  0.25813395  0.90939483  0.36450202    -0.78870
C304        C  0.27964010  0.91985814  0.38577546     1.01710
Cr305      Cr  0.23740552  0.99161292  0.38383201     1.93740
Cr306      Cr  0.16789986  0.96696982  0.35704286     1.93210
Cr307      Cr  0.23761281  0.93583515  0.32744240     1.39100
O308        O  0.21470011  0.96549026  0.35551278    -1.23960
O309        O  0.22040560  0.98840077  0.65982699    -0.86210
O310        O  0.26642901  0.04315158  0.64468730    -0.83250
C311        C  0.29529434  0.05535761  0.63130302     0.97260
O312        O  0.29881102  0.05169305  0.59865924    -0.83290
O313        O  0.33602173  0.99532054  0.61029704    -0.85930
C314        C  0.33898087  0.96749279  0.62572228     1.01780
O315        O  0.32060256  0.94211841  0.61767969    -0.78690
O316        O  0.26486149  0.95409283  0.66821727    -0.78880
C317        C  0.23611234  0.96792914  0.67881037     1.01730
O318        O  0.19795595  0.97504363  0.58958620    -0.86200
O319        O  0.22967258  0.04240781  0.57604955    -0.83270
C320        C  0.23937259  0.03348307  0.54575049     0.97280
O321        O  0.26674191  0.01537399  0.54081782    -0.83290
O322        O  0.30908332  0.96164203  0.55110325    -0.85900
C323        C  0.28620067  0.93972754  0.54454700     1.01750
O324        O  0.26663319  0.92894289  0.56856433    -0.78720
O325        O  0.21831216  0.93375695  0.62051086    -0.78870
C326        C  0.19805881  0.94227590  0.59724271     1.01710
Cr327      Cr  0.23052303  0.01158420  0.61679097     1.93740
Cr328      Cr  0.30036639  0.00464407  0.57688754     1.93210
Cr329      Cr  0.26868729  0.94283119  0.61756549     1.39100
O330        O  0.26691571  0.98654485  0.60438770    -1.23960
O331        O  0.23834996  0.00827815  0.06743527    -0.86210
O332        O  0.28436015  0.04712119  0.10091450    -0.83250
C333        C  0.28892534  0.08017423  0.10005339     0.97260
O334        O  0.26825704  0.10025314  0.11615543    -0.83290
O335        O  0.20437455  0.11943584  0.10033463    -0.85930
C336        C  0.21118080  0.10896894  0.06953353     1.01780
O337        O  0.19837214  0.08088424  0.05914986    -0.79410
O338        O  0.18248518  0.01007060  0.06556172    -0.78880
C339        C  0.21095963  0.99657152  0.05584614     1.01730
O340        O  0.19724227  0.98475793  0.13046610    -0.86200
O341        O  0.25109941  0.01941026  0.16706901    -0.83270
C342        C  0.25477840  0.04436838  0.18778028     0.97280
O343        O  0.24707344  0.07464733  0.17969859    -0.83290
O344        O  0.18096259  0.09219738  0.16633751    -0.85900
C345        C  0.15253988  0.08981481  0.15140212     1.01750
O346        O  0.15256263  0.09189592  0.11907270    -0.78720
O347        O  0.15101346  0.02057118  0.12734971    -0.78870
C348        C  0.16336505  0.99107672  0.13477891     1.01710
Cr349      Cr  0.24106500  0.01731260  0.11718288     1.93740
Cr350      Cr  0.22393228  0.09368510  0.13927309     1.93210
Cr351      Cr  0.17375480  0.05190880  0.09399157     1.39100
O352        O  0.21315579  0.05347889  0.11814181    -1.23960
O353        O  0.97696036  0.83211905  0.21271519    -0.86210
O354        O  0.94734042  0.86833303  0.27659945    -0.83250
C355        C  0.95344220  0.85354451  0.30644318     0.97260
O356        O  0.98420135  0.84362171  0.31075986    -0.83290
O357        O  0.04992545  0.82686009  0.30115679    -0.85930
C358        C  0.04610767  0.80025041  0.28151398     1.01780
O359        O  0.04268011  0.80274297  0.24955661    -0.78690
O360        O  0.02841971  0.83393382  0.18800334    -0.78880
C361        C  0.99997007  0.81913846  0.19182103     1.01730
O362        O  0.01603646  0.89809573  0.18923678    -0.86200
O363        O  0.98695663  0.92647431  0.24795185    -0.83270
C364        C  0.98345080  0.93609885  0.27896691     0.97280
O365        O  0.99429395  0.91683346  0.30312037    -0.83290
O366        O  0.06489373  0.90004077  0.29042097    -0.85900
C367        C  0.09128913  0.88770519  0.27413131     1.01750
O368        O  0.09094841  0.85664780  0.26426726    -0.78720
O369        O  0.06975842  0.88670724  0.20690171    -0.78870
C370        C  0.05023837  0.90222298  0.18682067     1.01710
Cr371      Cr  0.98327643  0.87970563  0.23219322     1.93740
Cr372      Cr  0.02378317  0.87191561  0.29873433     1.93210
Cr373      Cr  0.05567725  0.84577895  0.22905419     1.39100
O374        O  0.02054590  0.86652754  0.25338288    -1.23960
O375        O  0.02720723  0.36368257  0.30114416    -0.86210
O376        O  0.05187941  0.35889763  0.23054860    -0.83250
C377        C  0.06738760  0.36958722  0.20229460     0.97260
O378        O  0.06565826  0.40133612  0.19740504    -0.83290
O379        O  0.00666414  0.38872919  0.15665427    -0.85930
C380        C  0.99989736  0.35733526  0.16193566     1.01780
O381        O  0.00212637  0.34610774  0.19205693    -0.78690
O382        O  0.98874370  0.33786629  0.26535910    -0.78880
C383        C  0.00878786  0.33825555  0.29255020     1.01730
O384        O  0.96964746  0.40925387  0.29250774    -0.86200
O385        O  0.04511483  0.42528121  0.27278031    -0.83270
C386        C  0.04732476  0.45353598  0.25694018     0.97280
O387        O  0.03299322  0.45855437  0.22794521    -0.83290
O388        O  0.97403133  0.44608982  0.18929437    -0.85900
C389        C  0.94771149  0.42799821  0.18317571     1.01750
O390        O  0.94582766  0.39580391  0.18894622    -0.78720
O391        O  0.93225130  0.38798243  0.25640616    -0.78870
C392        C  0.93690253  0.40430844  0.28430267     1.01710
Cr393      Cr  0.01340554  0.38667786  0.26242706     1.93740
Cr394      Cr  0.01887351  0.42317078  0.19435188     1.93210
Cr395      Cr  0.96875819  0.36817996  0.22473702     1.39100
O396        O  0.99722685  0.40186957  0.22810388    -1.23960
O397        O  0.99971953  0.65729195  0.20692659    -0.86210
O398        O  0.01751091  0.64897864  0.28248796    -0.83250
C399        C  0.00662876  0.65383725  0.31493296     0.97260
O400        O  0.97512021  0.64620342  0.32182381    -0.83290
O401        O  0.90485938  0.63309607  0.30417421    -0.85930
C402        C  0.89380968  0.66222339  0.29369368     1.01780
O403        O  0.89921371  0.67218150  0.26357688    -0.78690
O404        O  0.94863333  0.68644314  0.21551427    -0.78880
C405        C  0.97965304  0.68384737  0.20242490     1.01730
O406        O  0.96614797  0.58562374  0.20575660    -0.86200
O407        O  0.03371583  0.59552461  0.23571571    -0.83270
C408        C  0.02912675  0.57979518  0.26451105     0.97280
O409        O  0.00087912  0.58501417  0.28433469    -0.83290
O410        O  0.93194650  0.57513669  0.26665947    -0.85900
C411        C  0.90555315  0.57606572  0.24817196     1.01750
O412        O  0.89273700  0.60447335  0.23722382    -0.78720
O413        O  0.93912715  0.62720090  0.18300751    -0.78870
C414        C  0.94294531  0.59575357  0.18393291     1.01710
Cr415      Cr  0.99151044  0.61966870  0.24207947     1.93740
Cr416      Cr  0.95201526  0.61158114  0.29226555     1.93210
Cr417      Cr  0.92080864  0.64702779  0.22681004     1.39100
O418        O  0.95425526  0.63576758  0.25486076    -1.23960
O419        O  0.98551915  0.19266609  0.28171149    -0.86210
O420        O  0.93313301  0.15863011  0.24652642    -0.83250
C421        C  0.93522550  0.16199072  0.21236098     0.97260
O422        O  0.96077504  0.14886640  0.19609858    -0.83290
O423        O  0.02658378  0.13406824  0.18144002    -0.85930
C424        C  0.04113307  0.16277880  0.18781318     1.01780
O425        O  0.03873414  0.17647982  0.21737724    -0.78690
O426        O  0.04084076  0.18190397  0.28815885    -0.78880
C427        C  0.01485677  0.20195141  0.29156337     1.01730
O428        O  0.01379146  0.13144349  0.32275025    -0.86200
O429        O  0.95962163  0.09719292  0.29013378    -0.83270
C430        C  0.95030392  0.07681919  0.26687056     0.97280
O431        O  0.94921465  0.08693250  0.23569128    -0.83290
O432        O  0.01693361  0.07216113  0.22539387    -0.85900
C433        C  0.04902481  0.07629604  0.22267840     1.01750
O434        O  0.06187490  0.10598581  0.22269124    -0.78720
O435        O  0.05552309  0.11040778  0.28805143    -0.78870
C436        C  0.04465694  0.11550713  0.31825885     1.01710
Cr437      Cr  0.97363668  0.14444449  0.28380496     1.93740
Cr438      Cr  0.98911495  0.11160191  0.21213632     1.93210
Cr439      Cr  0.04643915  0.14367066  0.25348744     1.39100
O440        O  0.00246876  0.13327581  0.25010301    -1.23960
O441        O  0.89114693  0.76788670  0.52848333    -0.86210
O442        O  0.88275240  0.80143135  0.46427239    -0.83250
C443        C  0.86961105  0.82088131  0.44047023     0.97260
O444        O  0.83660871  0.82323505  0.44039894    -0.83290
O445        O  0.83430314  0.76963430  0.39233611    -0.85930
C446        C  0.86660708  0.76098532  0.39138113     1.01780
O447        O  0.88154968  0.75562583  0.41910802    -0.78690
O448        O  0.90193479  0.73108236  0.48315873    -0.78880
C449        C  0.91218368  0.74855811  0.51039574     1.01730
O450        O  0.83671551  0.72002282  0.52317532    -0.86200
O451        O  0.82401065  0.79526361  0.51923843    -0.83270
C452        C  0.79235159  0.80060385  0.51124463     0.97280
O453        O  0.78112027  0.79441682  0.48076185    -0.83290
O454        O  0.77845926  0.74078619  0.43033545    -0.85900
C455        C  0.79241692  0.71421470  0.41557757     1.01750
O456        O  0.82542528  0.70797439  0.41449259    -0.78720
O457        O  0.84192285  0.68466257  0.47839035    -0.78870
C458        C  0.83385518  0.68882066  0.51023766     1.01710
Cr459      Cr  0.85748734  0.76285332  0.49493335     1.93740
Cr460      Cr  0.80800046  0.78093770  0.43752783     1.93210
Cr461      Cr  0.86127223  0.72120375  0.44846614     1.39100
O462        O  0.83278124  0.75326297  0.46308594    -1.23960
O463        O  0.33465232  0.69780098  0.47588127    -0.86210
O464        O  0.33906782  0.77185018  0.46368422    -0.83250
C465        C  0.35543939  0.79931797  0.45305057     0.97260
O466        O  0.38643957  0.80320357  0.46305523    -0.83290
O467        O  0.36847270  0.82931856  0.52715113    -0.85930
C468        C  0.33553696  0.82704230  0.52422361     1.01780
O469        O  0.31995042  0.79875782  0.52904155    -0.78690
O470        O  0.31343969  0.72367793  0.52544699    -0.78880
C471        C  0.31114276  0.70101842  0.50031795     1.01730
O472        O  0.38686715  0.69646824  0.52859277    -0.86200
O473        O  0.40049745  0.72904081  0.46109271    -0.83270
C474        C  0.42996465  0.74277187  0.46440163     0.97280
O475        O  0.43758372  0.76010967  0.49148149    -0.83290
O476        O  0.42052470  0.78891117  0.55834691    -0.85900
C477        C  0.39871138  0.80053000  0.58134214     1.01750
O478        O  0.36740469  0.79089336  0.58195408    -0.78720
O479        O  0.36665111  0.72247051  0.57645568    -0.78870
C480        C  0.38599724  0.69907777  0.56256501     1.01710
Cr481      Cr  0.36159314  0.73265517  0.49561591     1.93740
Cr482      Cr  0.40339362  0.79412717  0.51089397     1.93210
Cr483      Cr  0.34312816  0.75963491  0.55190044     1.39100
O484        O  0.37621486  0.76151335  0.52069501    -1.23960
O485        O  0.65309543  0.77791622  0.50385334    -0.86210
O486        O  0.64793900  0.73055572  0.44453987    -0.83250
C487        C  0.63554016  0.70410165  0.42812482     0.97260
O488        O  0.60352785  0.70171243  0.43105240    -0.83290
O489        O  0.62893384  0.66656541  0.48755313    -0.85930
C490        C  0.64004326  0.66593205  0.51795072     1.01780
O491        O  0.62112111  0.67839094  0.54261548    -0.78690
O492        O  0.65859980  0.73850172  0.54331586    -0.78880
C493        C  0.66878761  0.76579723  0.52927856     1.01730
O494        O  0.58029520  0.79792409  0.50943306    -0.86200
O495        O  0.57468014  0.76013285  0.44196968    -0.83270
C496        C  0.54763274  0.74178082  0.44267757     0.97280
O497        O  0.54334471  0.71884998  0.46544512    -0.83290
O498        O  0.55913104  0.67443985  0.51776421    -0.85900
C499        C  0.54384520  0.69256407  0.54121004     1.01750
O500        O  0.55742862  0.72017823  0.55108634    -0.78720
O501        O  0.59903754  0.77555236  0.55756617    -0.78870
C502        C  0.58083304  0.79806097  0.54353507     1.01710
Cr503      Cr  0.61341574  0.76483915  0.47573971     1.93740
Cr504      Cr  0.58499393  0.69251864  0.47761091     1.93210
Cr505      Cr  0.60825147  0.72757253  0.54515436     1.39100
O506        O  0.60191422  0.72914751  0.49978139    -1.23960
O507        O  0.06990364  0.77768251  0.51142175    -0.86210
O508        O  0.07786730  0.71426200  0.47023632    -0.83250
C509        C  0.08993320  0.69663573  0.44322458     0.97260
O510        O  0.12278961  0.69557997  0.44020876    -0.83290
O511        O  0.11204835  0.74760939  0.39811601    -0.85930
C512        C  0.10399120  0.77654782  0.38746281     1.01780
O513        O  0.11011568  0.80372394  0.40442480    -0.78690
O514        O  0.06227303  0.80066272  0.46053997    -0.78880
C515        C  0.04992825  0.78936350  0.48902556     1.01730
O516        O  0.14042577  0.78259921  0.53088042    -0.86200
O517        O  0.14912681  0.70939422  0.50259857    -0.83270
C518        C  0.17848090  0.70904963  0.48633265     0.97280
O519        O  0.18406922  0.73005125  0.46279691    -0.83290
O520        O  0.17547820  0.77660395  0.41480662    -0.85900
C521        C  0.18539537  0.80163396  0.43271278     1.01750
O522        O  0.16430078  0.81687082  0.45412459    -0.78720
O523        O  0.11402416  0.82526859  0.50525007    -0.78870
C524        C  0.13427048  0.81580789  0.52865857     1.01710
Cr525      Cr  0.11027666  0.74619938  0.50204895     1.93740
Cr526      Cr  0.14703044  0.73939009  0.43132834     1.93210
Cr527      Cr  0.11354887  0.80869177  0.45615199     1.39100
O528        O  0.12373497  0.76493139  0.46328520    -1.23960
C529        C  0.26489309  0.67293140  0.46753398    -0.10010
C530        C  0.27876498  0.68119386  0.49978394     0.06180
C531        C  0.25648784  0.68070426  0.52989608    -0.03780
C532        C  0.22025815  0.68332468  0.52615456    -0.08230
C533        C  0.20691652  0.68442684  0.49278423     0.05300
C534        C  0.22866604  0.67373260  0.46402221    -0.03260
Br535      Br  0.21078880  0.66860334  0.41797703    -0.02950
H536        H  0.28169892  0.67103652  0.44435149     0.09210
H537        H  0.20348271  0.68947994  0.54870883     0.07230
Br538      Br  0.27413868  0.68200232  0.57623897    -0.03380
C539        C  0.46847101  0.77514813  0.42684370    -0.10010
C540        C  0.45405724  0.74315799  0.43491826     0.06180
C541        C  0.46979101  0.71270358  0.42135855    -0.03780
C542        C  0.50418020  0.71445857  0.40856933    -0.08230
C543        C  0.52220604  0.74496614  0.41528043     0.05300
C544        C  0.50326956  0.77612521  0.41561069    -0.03260
Br545      Br  0.52615911  0.81962051  0.41486571    -0.02950
H546        H  0.45501458  0.79897620  0.43478968     0.09210
H547        H  0.51887123  0.69052507  0.40405990     0.07230
Br548      Br  0.44971017  0.66835426  0.42820609    -0.03380
C549        C  0.97041462  0.73915364  0.48627690    -0.10010
C550        C  0.95010603  0.75171064  0.51461088     0.06180
C551        C  0.96449603  0.77681193  0.53687293    -0.03780
C552        C  0.99679532  0.79118667  0.52755971    -0.08230
C553        C  0.01308460  0.78273678  0.49519107     0.05300
C554        C  0.99902127  0.75704848  0.47461850    -0.03260
Br555      Br  0.01634302  0.74740972  0.42909509    -0.02950
H556        H  0.96126253  0.71849842  0.47001763     0.09210
H557        H  0.00905064  0.80897366  0.54527543     0.07230
Br558      Br  0.94216490  0.79146884  0.58014378    -0.03380
C559        C  0.73895002  0.83112811  0.52896908    -0.10010
C560        C  0.76638256  0.80944790  0.53877390     0.06180
C561        C  0.75836495  0.78254366  0.56146340    -0.03780
C562        C  0.72490050  0.76865324  0.56099891    -0.08230
C563        C  0.69906847  0.78492471  0.54157176     0.05300
C564        C  0.70484563  0.81911472  0.53048155    -0.03260
Br565      Br  0.66857935  0.84958109  0.51440291    -0.02950
H566        H  0.74450078  0.85416833  0.51446173     0.09210
H567        H  0.72005883  0.74439485  0.57352561     0.07230
Br568      Br  0.79382241  0.76066072  0.58772318    -0.03380
C569        C  0.01501538  0.66215163  0.38166378    -0.10010
C570        C  0.02932142  0.66492383  0.34693481     0.06180
C571        C  0.06534086  0.67368131  0.34570197    -0.03780
C572        C  0.08394147  0.68219632  0.37673528    -0.08230
C573        C  0.06858981  0.68251842  0.41125812     0.05300
C574        C  0.03401595  0.66964221  0.41269735    -0.03260
Br575      Br  0.01242794  0.65938143  0.45678286    -0.02950
H576        H  0.98864145  0.65279214  0.38511585     0.09210
H577        H  0.11129711  0.68857540  0.37345231     0.07230
Br578      Br  0.09148021  0.67222464  0.30242118    -0.03380
C579        C  0.90298487  0.68883980  0.34769339    -0.10010
C580        C  0.88344857  0.68898345  0.31789025     0.06180
C581        C  0.86704412  0.72003752  0.30699019    -0.03780
C582        C  0.86619429  0.74847550  0.32938382    -0.08230
C583        C  0.88380431  0.74661050  0.36055721     0.05300
C584        C  0.90695746  0.71859814  0.36613780    -0.03260
Br585      Br  0.94079855  0.71580287  0.40166656    -0.02950
H586        H  0.91837522  0.66643377  0.35491840     0.09210
H587        H  0.84958604  0.77061082  0.32394442     0.07230
Br588      Br  0.84491021  0.72532934  0.26285733    -0.03380
C589        C  0.04672947  0.29075888  0.30471090    -0.10010
C590        C  0.01399400  0.30678160  0.31067159     0.06180
C591        C  0.98500371  0.28798341  0.32154571    -0.03780
C592        C  0.98760282  0.25241196  0.32030723    -0.08230
C593        C  0.01826137  0.23619522  0.30639073     0.05300
C594        C  0.04895953  0.25528791  0.30097230    -0.03260
Br595      Br  0.09193271  0.23691913  0.28022088    -0.02950
H596        H  0.06904578  0.30580906  0.29648242     0.09210
H597        H  0.96429693  0.23773425  0.32589376     0.07230
Br598      Br  0.94025761  0.30977189  0.33207362    -0.03380
C599        C  0.08452408  0.50298084  0.24985795    -0.10010
C600        C  0.06498278  0.48255911  0.27268851     0.06180
C601        C  0.04985864  0.49775446  0.30302157    -0.03780
C602        C  0.04480657  0.53335079  0.30414815    -0.08230
C603        C  0.05421197  0.55276359  0.27485570     0.05300
C604        C  0.07925000  0.53857088  0.25074254    -0.03260
Br605      Br  0.10214881  0.56483189  0.21517855    -0.02950
H606        H  0.09857501  0.49115816  0.22769345     0.09210
H607        H  0.02815550  0.54452297  0.32486176     0.07230
Br608      Br  0.02724915  0.47112037  0.33837132    -0.03380
C609        C  0.87357313  0.84231624  0.37578242    -0.10010
C610        C  0.89082453  0.83448961  0.40761501     0.06180
C611        C  0.92784959  0.83549684  0.40469516    -0.03780
C612        C  0.94585678  0.84221210  0.37237854    -0.08230
C613        C  0.92905243  0.84856370  0.34004448     0.05300
C614        C  0.89181111  0.84905363  0.34307523    -0.03260
Br615      Br  0.86453841  0.85707770  0.30293020    -0.02950
H616        H  0.84520812  0.84182445  0.37576640     0.09210
H617        H  0.97421461  0.84237135  0.37295581     0.07230
Br618      Br  0.95572679  0.82941283  0.44474874    -0.03380
C619        C  0.96478867  0.02871055  0.30608813    -0.10010
C620        C  0.94726467  0.04009532  0.27619651     0.06180
C621        C  0.93390927  0.01533273  0.25342599    -0.03780
C622        C  0.94265591  0.98068792  0.25793392    -0.08230
C623        C  0.96541254  0.97001622  0.28432592     0.05300
C624        C  0.97401098  0.99396026  0.31024017    -0.03260
Br625      Br  0.00101608  0.98162380  0.34961001    -0.02950
H626        H  0.97436318  0.04715174  0.32484066     0.09210
H627        H  0.93382063  0.96220640  0.23880194     0.07230
Br628      Br  0.90557748  0.02711802  0.21465846    -0.03380
C629        C  0.02801126  0.76246338  0.18245989    -0.10010
C630        C  0.99823112  0.78395710  0.17829986     0.06180
C631        C  0.96675120  0.76962480  0.16822772    -0.03780
C632        C  0.96380505  0.73405029  0.16857938    -0.08230
C633        C  0.99086838  0.71339557  0.18220636     0.05300
C634        C  0.02435262  0.72709174  0.18565453    -0.03260
Br635      Br  0.06384907  0.70080295  0.20147374    -0.02950
H636        H  0.05313935  0.77337957  0.18830752     0.09210
H637        H  0.93840173  0.72322238  0.16365041     0.07230
Br638      Br  0.92649869  0.79747174  0.15756225    -0.03380
C639        C  0.05031740  0.77649870  0.35634762    -0.10010
C640        C  0.08694668  0.77668963  0.35501683     0.06180
C641        C  0.10543562  0.76489002  0.32478544    -0.03780
C642        C  0.08664868  0.75816758  0.29497727    -0.08230
C643        C  0.05085089  0.76654776  0.29579908     0.05300
C644        C  0.03259362  0.76494977  0.32752647    -0.03260
Br645      Br  0.98252547  0.76332145  0.32890405    -0.02950
H646        H  0.03586562  0.78632529  0.37886733     0.09210
H647        H  0.10068302  0.75422932  0.27028464     0.07230
Br648      Br  0.15562598  0.76097234  0.32248044    -0.03380
C649        C  0.09832539  0.91332825  0.14074278    -0.10010
C650        C  0.07120152  0.92647655  0.16394122     0.06180
C651        C  0.07668016  0.95932507  0.17782661    -0.03780
C652        C  0.10842205  0.97709147  0.17077388    -0.08230
C653        C  0.13520650  0.96515818  0.14714956     0.05300
C654        C  0.12883690  0.93265510  0.13130803    -0.03260
Br655      Br  0.16081454  0.91368439  0.09651458    -0.02950
H656        H  0.09636437  0.88724309  0.13067285     0.09210
H657        H  0.11321384  0.00034576  0.18450613     0.07230
Br658      Br  0.04081024  0.97757672  0.20944576    -0.03380
C659        C  0.06784222  0.04787092  0.17409403    -0.10010
C660        C  0.07100450  0.04922892  0.21026561     0.06180
C661        C  0.10400837  0.05103306  0.22479622    -0.03780
C662        C  0.13020254  0.06521342  0.20482391    -0.08230
C663        C  0.12391795  0.07457015  0.17024463     0.05300
C664        C  0.09302681  0.06393574  0.15393784    -0.03260
Br665      Br  0.08196264  0.07178644  0.10609659    -0.02950
H666        H  0.04261547  0.04277750  0.16289692     0.09210
H667        H  0.15452379  0.07093993  0.21732108     0.07230
Br668      Br  0.10937687  0.05266986  0.27409271    -0.03380
C669        C  0.19230058  0.87638330  0.58685815    -0.10010
C670        C  0.17924781  0.91067425  0.58035381     0.06180
C671        C  0.14868031  0.91161876  0.56063565    -0.03780
C672        C  0.13490423  0.88090932  0.54530336    -0.08230
C673        C  0.14903394  0.84676142  0.55032763     0.05300
C674        C  0.17717870  0.84543568  0.57345187    -0.03260
Br675      Br  0.19464872  0.80199160  0.58938041    -0.02950
H676        H  0.21467466  0.87316257  0.60329518     0.09210
H677        H  0.11197930  0.88406623  0.52960464     0.07230
Br678      Br  0.12206051  0.95350748  0.55838989    -0.03380
C679        C  0.26480824  0.89354806  0.50876706    -0.10010
C680        C  0.28684538  0.92206248  0.51067639     0.06180
C681        C  0.32097026  0.91777246  0.49751327    -0.03780
C682        C  0.33709959  0.88678970  0.50506193    -0.08230
C683        C  0.31680791  0.85805238  0.51377220     0.05300
C684        C  0.27995816  0.86074835  0.51215609    -0.03260
Br685      Br  0.24964687  0.82258432  0.51966377    -0.02950
H686        H  0.23684357  0.89697793  0.51380929     0.09210
H687        H  0.36539212  0.88577808  0.50515484     0.07230
Br688      Br  0.34956617  0.95643896  0.48563629    -0.03380
C689        C  0.33405418  0.89376444  0.41958134    -0.10010
C690        C  0.30342525  0.88999144  0.40040046     0.06180
C691        C  0.29816561  0.85478444  0.39002566    -0.03780
C692        C  0.31136147  0.82627309  0.40932745    -0.08230
C693        C  0.33933769  0.83004487  0.43203323     0.05300
C694        C  0.35354576  0.86438407  0.43203065    -0.03260
Br695      Br  0.40142119  0.87304847  0.44368087    -0.02950
H696        H  0.34467524  0.91921441  0.42214896     0.09210
H697        H  0.30376667  0.80042863  0.40237985     0.07230
Br698      Br  0.29198059  0.84468219  0.34138830    -0.03380
C699        C  0.13929391  0.09644581  0.34886252    -0.10010
C700        C  0.13757443  0.06290911  0.36227474     0.06180
C701        C  0.10217709  0.05134950  0.36813234    -0.03780
C702        C  0.07152355  0.07133537  0.35968471    -0.08230
C703        C  0.07321571  0.10392191  0.34418136     0.05300
C704        C  0.10855511  0.11609439  0.33978201    -0.03260
Br705      Br  0.11748914  0.15739768  0.31500447    -0.02950
H706        H  0.16489155  0.10630765  0.34201110     0.09210
H707        H  0.04614435  0.05940912  0.36184261     0.07230
Br708      Br  0.09259260  0.00594351  0.38382167    -0.03380
C709        C  0.26614040  0.04698361  0.28459682    -0.10010
C710        C  0.28542376  0.01616143  0.28895052     0.06180
C711        C  0.30094845  0.99934153  0.25947540    -0.03780
C712        C  0.29213335  0.01021345  0.22638986    -0.08230
C713        C  0.26823492  0.03776638  0.22236173     0.05300
C714        C  0.25638429  0.05722937  0.25178646    -0.03260
Br715      Br  0.22195020  0.09407507  0.25024069    -0.02950
H716        H  0.25436371  0.06078085  0.30686257     0.09210
H717        H  0.30268267  0.99606049  0.20377890     0.07230
Br718      Br  0.33249636  0.96043270  0.26272544    -0.03380
C719        C  0.22068029  0.03284024  0.45397367    -0.10010
C720        C  0.18938094  0.01426086  0.45552348     0.06180
C721        C  0.16812799  0.01661221  0.48565868    -0.03780
C722        C  0.18264181  0.02928527  0.51645772    -0.08230
C723        C  0.21754475  0.04082114  0.51594618     0.05300
C724        C  0.23449928  0.04673238  0.48390731    -0.03260
Br725      Br  0.27994002  0.06715800  0.48073275    -0.02950
H726        H  0.23681311  0.03288441  0.43036729     0.09210
H727        H  0.16844293  0.02624048  0.54097082     0.07230
Br728      Br  0.12107056  0.00063317  0.48511303    -0.03380
C729        C  0.22065081  0.85022610  0.43705545    -0.10010
C730        C  0.21893297  0.81715088  0.42312675     0.06180
C731        C  0.22598092  0.81377613  0.38731087    -0.03780
C732        C  0.21227573  0.83962334  0.36646832    -0.08230
C733        C  0.19797559  0.86971868  0.38264416     0.05300
C734        C  0.20253084  0.87511400  0.41900337    -0.03260
Br735      Br  0.17598922  0.90728906  0.44838822    -0.02950
H736        H  0.22051416  0.85343581  0.46490391     0.09210
H737        H  0.21214910  0.83599695  0.33847586     0.07230
Br738      Br  0.24141946  0.77033728  0.36720183    -0.03380
C739        C  0.14013006  0.96666245  0.24644544    -0.10010
C740        C  0.17357601  0.95188229  0.24698892     0.06180
C741        C  0.17631526  0.91764891  0.23516202    -0.03780
C742        C  0.14846088  0.89609934  0.24340984    -0.08230
C743        C  0.11794620  0.91050657  0.25997454     0.05300
C744        C  0.11294448  0.94687759  0.26004969    -0.03260
Br745      Br  0.07755604  0.97128209  0.28806731    -0.02950
H746        H  0.13818053  0.99411960  0.24908676     0.09210
H747        H  0.15182998  0.86850922  0.23965082     0.07230
Br748      Br  0.22075184  0.89803480  0.22046328    -0.03380
C749        C  0.18002700  0.96174832  0.01326067    -0.10010
C750        C  0.21147104  0.96878250  0.02992701     0.06180
C751        C  0.24306070  0.95322799  0.01712675    -0.03780
C752        C  0.24417390  0.94041127  0.98321724    -0.08230
C753        C  0.21439148  0.94406220  0.96309402     0.05300
C754        C  0.18131663  0.94884736  0.97945677    -0.03260
Br755      Br  0.13846062  0.94847283  0.95435867    -0.02950
H756        H  0.15493331  0.97067684  0.02428007     0.09210
H757        H  0.26942516  0.93399789  0.97086352     0.07230
Br758      Br  0.28598424  0.95262611  0.04213068    -0.03380
C759        C  0.23173618  0.93469475  0.73373056    -0.10010
C760        C  0.21733812  0.95885251  0.71121785     0.06180
C761        C  0.18331947  0.97339604  0.71988996    -0.03780
C762        C  0.16965516  0.97023543  0.75345248    -0.08230
C763        C  0.18967143  0.95409776  0.77817465     0.05300
C764        C  0.21622531  0.93083566  0.76673230    -0.03260
Br765      Br  0.23328894  0.89660671  0.79727573    -0.02950
H766        H  0.25509576  0.91974397  0.72621645     0.09210
H767        H  0.14696262  0.98588893  0.76172378     0.07230
Br768      Br  0.15397924  0.00005862  0.68976382    -0.03380
C769        C  0.88450526  0.52184060  0.14737130    -0.10010
C770        C  0.84993602  0.53689469  0.14609160     0.06180
C771        C  0.84851492  0.57288626  0.15265161    -0.03780
C772        C  0.87911103  0.59107013  0.16287858    -0.08230
C773        C  0.91272468  0.57478467  0.16773507     0.05300
C774        C  0.91481415  0.53980992  0.15830201    -0.03260
Br775      Br  0.95984247  0.51738601  0.15671188    -0.02950
H776        H  0.88839152  0.49567838  0.13862621     0.09210
H777        H  0.87590537  0.61834899  0.16869740     0.07230
Br778      Br  0.80527270  0.59842440  0.14966203    -0.03380
C779        C  0.89012203  0.42050889  0.11654979    -0.10010
C780        C  0.85936368  0.41825595  0.13714614     0.06180
C781        C  0.85796428  0.43192676  0.17146725    -0.03780
C782        C  0.88833680  0.44363892  0.18571677    -0.08230
C783        C  0.91934356  0.44231332  0.16583869     0.05300
C784        C  0.91957963  0.43442401  0.13034938    -0.03260
Br785      Br  0.96071502  0.43913280  0.10121854    -0.02950
H786        H  0.89091236  0.41260483  0.08934409     0.09210
H787        H  0.88857948  0.45055280  0.21317961     0.07230
Br788      Br  0.81605710  0.43843246  0.19949364    -0.03380
C789        C  0.80814962  0.62058743  0.58159072    -0.10010
C790        C  0.79779257  0.59106260  0.56211981     0.06180
C791        C  0.80273240  0.59345970  0.52579742    -0.03780
C792        C  0.81345172  0.62509586  0.51006153    -0.08230
C793        C  0.82161441  0.65566879  0.52962484     0.05300
C794        C  0.82088364  0.65134071  0.56618580    -0.03260
Br795      Br  0.84047264  0.68470891  0.59670880    -0.02950
H796        H  0.80598752  0.61988910  0.60973122     0.09210
H797        H  0.81567815  0.62547855  0.48193627     0.07230
Br798      Br  0.79661359  0.55310896  0.49756945    -0.03380
C799        C  0.68362710  0.59478730  0.55100753    -0.10010
C800        C  0.68929750  0.61144945  0.58321741     0.06180
C801        C  0.69819113  0.64611353  0.58338440    -0.03780
C802        C  0.69194615  0.66465137  0.55334907    -0.08230
C803        C  0.67328515  0.64922535  0.52616595     0.05300
C804        C  0.67511347  0.61355364  0.52228818    -0.03260
Br805      Br  0.65449523  0.58903807  0.48472439    -0.02950
H806        H  0.67947266  0.56755246  0.54941016     0.09210
H807        H  0.69555086  0.69195867  0.55430269     0.07230
Br808      Br  0.71320478  0.66987115  0.62423749    -0.03380
C809        C  0.63689595  0.63904458  0.41517286    -0.10010
C810        C  0.65393799  0.67136595  0.41153895     0.06180
C811        C  0.68178529  0.67088755  0.38687373    -0.03780
C812        C  0.69503494  0.63900284  0.37154103    -0.08230
C813        C  0.68057840  0.60582052  0.37878981     0.05300
C814        C  0.64899791  0.60758990  0.39874226    -0.03260
Br815      Br  0.61702957  0.57049642  0.39816336    -0.02950
H816        H  0.61235010  0.63822258  0.42993374     0.09210
H817        H  0.71648137  0.64056775  0.35275011     0.07230
Br818      Br  0.69701333  0.71390459  0.36894151    -0.03380
C819        C  0.86400581  0.43836015  0.35362408    -0.10010
C820        C  0.83149166  0.43424262  0.33615705     0.06180
C821        C  0.83516060  0.41835615  0.30293106    -0.03780
C822        C  0.86898487  0.40988432  0.28748288    -0.08230
C823        C  0.90172126  0.41551298  0.30415309     0.05300
C824        C  0.89793506  0.42906870  0.33854067    -0.03260
Br825      Br  0.93825783  0.43641674  0.36595105    -0.02950
H826        H  0.86341190  0.44999553  0.37942015     0.09210
H827        H  0.86929236  0.39826771  0.26167710     0.07230
Br828      Br  0.79443161  0.40499640  0.27877903    -0.03380
C829        C  0.67505756  0.48899458  0.24898879    -0.10010
C830        C  0.68443577  0.46779330  0.27628667     0.06180
C831        C  0.69680254  0.43387703  0.26844143    -0.03780
C832        C  0.70870898  0.42540646  0.23443957    -0.08230
C833        C  0.70622199  0.44999009  0.20839266     0.05300
C834        C  0.68566083  0.48027126  0.21504093    -0.03260
Br835      Br  0.67468253  0.51286160  0.17964367    -0.02950
H836        H  0.66410063  0.51454698  0.25453729     0.09210
H837        H  0.72260585  0.40117411  0.22922737     0.07230
Br838      Br  0.70303551  0.40039639  0.30401744    -0.03380
C839        C  0.73288100  0.46474735  0.48712326    -0.10010
C840        C  0.71633566  0.48175712  0.46053455     0.06180
C841        C  0.67970157  0.48837986  0.46403980    -0.03780
C842        C  0.66323314  0.48814207  0.49707018    -0.08230
C843        C  0.68208591  0.47698776  0.52546044     0.05300
C844        C  0.71462390  0.45911606  0.51827805    -0.03260
Br845      Br  0.73983779  0.43396676  0.55233793    -0.02950
H846        H  0.75983989  0.45567844  0.48360049     0.09210
H847        H  0.63716336  0.49940564  0.50094295     0.07230
Br848      Br  0.65084020  0.49612215  0.42520900    -0.03380
C849        C  0.78826708  0.64619077  0.35566109    -0.10010
C850        C  0.78332474  0.62043022  0.38026204     0.06180
C851        C  0.76551592  0.62872228  0.41227538    -0.03780
C852        C  0.76065350  0.66295289  0.42217956    -0.08230
C853        C  0.77158135  0.68849781  0.39973698     0.05300
C854        C  0.78038943  0.68017856  0.36501580    -0.03260
Br855      Br  0.78401296  0.71558048  0.33146310    -0.02950
H856        H  0.79840957  0.64007715  0.32962662     0.09210
H857        H  0.75169336  0.66949283  0.44853509     0.07230
Br858      Br  0.74407549  0.59566660  0.44211773    -0.03380
C859        C  0.85479356  0.54344318  0.23270463    -0.10010
C860        C  0.88970545  0.54286453  0.24171705     0.06180
C861        C  0.90238567  0.51452882  0.26068693    -0.03780
C862        C  0.87930083  0.50095194  0.28500787    -0.08230
C863        C  0.84370026  0.50843480  0.28213164     0.05300
C864        C  0.83162638  0.52336091  0.25087538    -0.03260
Br865      Br  0.78359974  0.52677593  0.23624895    -0.02950
H866        H  0.84402762  0.56411658  0.21778360     0.09210
H867        H  0.88928143  0.48797164  0.30729449     0.07230
Br868      Br  0.95134814  0.50212844  0.26269546    -0.03380
C869        C  0.79520074  0.54520002  0.96643126    -0.10010
C870        C  0.76360121  0.54526788  0.94919589     0.06180
C871        C  0.73212018  0.55104534  0.96919901    -0.03780
C872        C  0.73173875  0.54604580  0.00520705    -0.08230
C873        C  0.76300806  0.53872359  0.02198373     0.05300
C874        C  0.79532946  0.54274783  0.00271155    -0.03260
Br875      Br  0.84128951  0.54117353  0.02235207    -0.02950
H876        H  0.81973371  0.54239262  0.95164337     0.09210
H877        H  0.70686522  0.54548501  0.01947896     0.07230
Br878      Br  0.68806742  0.55959308  0.94753885    -0.03380
C879        C  0.79308608  0.44881478  0.73484803    -0.10010
C880        C  0.79327854  0.47641975  0.75906157     0.06180
C881        C  0.80287432  0.50913704  0.74745920    -0.03780
C882        C  0.80492261  0.51493933  0.71166125    -0.08230
C883        C  0.79701090  0.48861133  0.68750679     0.05300
C884        C  0.79484868  0.45459031  0.69924366    -0.03260
Br885      Br  0.79035262  0.41542621  0.66855675    -0.02950
H886        H  0.78833892  0.42286241  0.74353953     0.09210
H887        H  0.80847332  0.54111268  0.70311368     0.07230
Br888      Br  0.80928810  0.54759874  0.77847354    -0.03380
C889        C  0.14199304  0.08136479  0.93147003    -0.10010
C890        C  0.15116227  0.08029110  0.89574214     0.06180
C891        C  0.14555391  0.11256992  0.87830597    -0.03780
C892        C  0.13337488  0.14349072  0.89639026    -0.08230
C893        C  0.12538952  0.14473462  0.93247200     0.05300
C894        C  0.12985577  0.11214432  0.94936914    -0.03260
Br895      Br  0.12322360  0.10758099  0.99867382    -0.02950
H896        H  0.14601055  0.05825482  0.94636323     0.09210
H897        H  0.13239961  0.16738687  0.88228174     0.07230
Br898      Br  0.15641468  0.11828729  0.82966553    -0.03380
C899        C  0.09484052  0.36323575  0.14013495    -0.10010
C900        C  0.07978506  0.34698359  0.16999620     0.06180
C901        C  0.07013327  0.31230379  0.16406901    -0.03780
C902        C  0.07322728  0.29659560  0.13019103    -0.08230
C903        C  0.08868498  0.31233911  0.10055222     0.05300
C904        C  0.10012964  0.34631365  0.10687297    -0.03260
Br905      Br  0.12365927  0.37068407  0.07048532    -0.02950
H906        H  0.10263196  0.38981352  0.14245991     0.09210
H907        H  0.06352514  0.27121589  0.12738275     0.07230
Br908      Br  0.05260657  0.28431458  0.20112030    -0.03380
C909        C  0.25046566  0.15827881  0.06428414    -0.10010
C910        C  0.23466498  0.12977684  0.04788182     0.06180
C911        C  0.23695140  0.12697419  0.01113888    -0.03780
C912        C  0.24629498  0.15651580  0.99267356    -0.08230
C913        C  0.24549697  0.18805151  0.01127598     0.05300
C914        C  0.25850177  0.18725462  0.04484468    -0.03260
Br915      Br  0.26679315  0.22962546  0.06946835    -0.02950
H916        H  0.25186523  0.16034555  0.09232747     0.09210
H917        H  0.24346845  0.15659303  0.96475282     0.07230
Br918      Br  0.22119214  0.08771925  0.98563682    -0.03380
C919        C  0.08717417  0.21129952  0.11897750    -0.10010
C920        C  0.12222285  0.20116381  0.12406195     0.06180
C921        C  0.13062178  0.18197758  0.15306171    -0.03780
C922        C  0.10339768  0.16859227  0.17333629    -0.08230
C923        C  0.06819721  0.17580390  0.16529406     0.05300
C924        C  0.06018425  0.19960056  0.14002880    -0.03260
Br925      Br  0.01323587  0.21655829  0.13351179    -0.02950
H926        H  0.08032996  0.22528003  0.09600675     0.09210
H927        H  0.10960093  0.15252322  0.19519483     0.07230
Br928      Br  0.17847532  0.17341512  0.16447301    -0.03380
C929        C  0.32695715  0.13196819  0.08955732    -0.10010
C930        C  0.31489385  0.09968285  0.07718574     0.06180
C931        C  0.31530680  0.09511948  0.04087193    -0.03780
C932        C  0.32202666  0.12321748  0.01828126    -0.08230
C933        C  0.32930739  0.15708814  0.03081030     0.05300
C934        C  0.33475049  0.15982244  0.06713774    -0.03260
Br935      Br  0.35272283  0.20073218  0.08805820    -0.02950
H936        H  0.32772518  0.13655847  0.11739763     0.09210
H937        H  0.31990621  0.11880817  0.99063546     0.07230
Br938      Br  0.30316424  0.05105674  0.02235722    -0.03380
C939        C  0.23217888  0.27732435  0.91377423    -0.10010
C940        C  0.25842757  0.29287714  0.93278600     0.06180
C941        C  0.24864708  0.31638056  0.95987951    -0.03780
C942        C  0.21377970  0.31887815  0.97167679    -0.08230
C943        C  0.18841560  0.29772066  0.95719907     0.05300
C944        C  0.19705698  0.27987850  0.92544886    -0.03260
Br945      Br  0.16387348  0.25420687  0.89933980    -0.02950
H946        H  0.23928890  0.25991562  0.89237952     0.09210
H947        H  0.20756581  0.33394323  0.99511984     0.07230
Br948      Br  0.28274309  0.34066803  0.98608219    -0.03380
C949        C  0.32249087  0.13026309  0.91375062    -0.10010
C950        C  0.31779090  0.16027049  0.89482837     0.06180
C951        C  0.28447576  0.16797186  0.88105508    -0.03780
C952        C  0.25691985  0.14580534  0.88685246    -0.08230
C953        C  0.26254312  0.11448074  0.90332738     0.05300
C954        C  0.29545910  0.10731768  0.91798106    -0.03260
Br955      Br  0.30849905  0.06424230  0.93807784    -0.02950
H956        H  0.34761490  0.12416261  0.92488829     0.09210
H957        H  0.23220211  0.15084602  0.87439377     0.07230
Br958      Br  0.27508977  0.20560641  0.85047295    -0.03380
C959        C  0.65764573  0.33358767  0.09122325    -0.10010
C960        C  0.62475228  0.33595131  0.07598499     0.06180
C961        C  0.60988555  0.37068444  0.07585781    -0.03780
C962        C  0.62897132  0.40055855  0.08657899    -0.08230
C963        C  0.66290140  0.39823754  0.10004514     0.05300
C964        C  0.67585354  0.36312698  0.10340915    -0.03260
Br965      Br  0.72022885  0.35226728  0.12328223    -0.02950
H966        H  0.66989739  0.30831812  0.09323928     0.09210
H967        H  0.61762907  0.42593766  0.08263988     0.07230
Br968      Br  0.56345609  0.38092302  0.06004231    -0.03380
C969        C  0.47807980  0.27527169  0.06412888    -0.10010
C970        C  0.49945643  0.24620400  0.05570038     0.06180
C971        C  0.48448575  0.21364620  0.05484246    -0.03780
C972        C  0.44841188  0.21212937  0.05136387    -0.08230
C973        C  0.42911984  0.24285789  0.04564582     0.05300
C974        C  0.44241835  0.27410104  0.05779324    -0.03260
Br975      Br  0.41536274  0.31632507  0.05987310    -0.02950
H976        H  0.48979975  0.30021975  0.06792824     0.09210
H977        H  0.43738130  0.18720861  0.04573752     0.07230
Br978      Br  0.51198661  0.17200528  0.04795468    -0.03380
C979        C  0.68663346  0.40351863  0.95216975    -0.10010
C980        C  0.71234687  0.38342281  0.93343797     0.06180
C981        C  0.71316627  0.34784470  0.93528873    -0.03780
C982        C  0.68853004  0.33262028  0.95563695    -0.08230
C983        C  0.66200992  0.35221091  0.97364868     0.05300
C984        C  0.66087725  0.38799234  0.97186030    -0.03260
Br985      Br  0.62581751  0.41664507  0.99519011    -0.02950
H986        H  0.68558157  0.43134593  0.95033417     0.09210
H987        H  0.68963113  0.30470540  0.95587485     0.07230
Br988      Br  0.74590010  0.31791195  0.91085847    -0.03380
C989        C  0.85419609  0.39143659  0.91387959    -0.10010
C990        C  0.82734093  0.38825422  0.88950939     0.06180
C991        C  0.82015221  0.35286808  0.88033172    -0.03780
C992        C  0.83274741  0.32402187  0.89989944    -0.08230
C993        C  0.85663085  0.32739387  0.92703189     0.05300
C994        C  0.86944683  0.36219398  0.93119791    -0.03260
Br995      Br  0.90492195  0.37392302  0.96367208    -0.02950
H996        H  0.86304747  0.41701487  0.92033850     0.09210
H997        H  0.82427759  0.29840733  0.89303217     0.07230
Br998      Br  0.79520140  0.34061936  0.83916920    -0.03380
C999        C  0.90753916  0.22266962  0.13884096    -0.10010
C1000       C  0.88794702  0.20153753  0.11619002     0.06180
C1001       C  0.87820519  0.16949045  0.13059016    -0.03780
C1002       C  0.88973210  0.15864720  0.16419079    -0.08230
C1003       C  0.90998012  0.17953955  0.18667178     0.05300
C1004       C  0.91839700  0.21212878  0.17264011    -0.03260
Br1005     Br  0.94672157  0.24270028  0.19898510    -0.02950
H1006       H  0.91457476  0.24805284  0.13015584     0.09210
H1007       H  0.88396660  0.13270994  0.17218090     0.07230
Br1008     Br  0.84904871  0.13934797  0.10481176    -0.03380
C1009       C  0.97240031  0.21744157  0.04427380    -0.10010
C1010       C  0.96958922  0.24386849  0.01977271     0.06180
C1011       C  0.99117843  0.24176597  0.98948652    -0.03780
C1012       C  0.01654143  0.21547559  0.98541807    -0.08230
C1013       C  0.02362583  0.19318917  0.01293771     0.05300
C1014       C  0.99884140  0.19179998  0.04041089    -0.03260
Br1015     Br  0.00055044  0.15386104  0.07148774    -0.02950
H1016       H  0.95318214  0.21583135  0.06542970     0.09210
H1017       H  0.03470836  0.21644619  0.96330665     0.07230
Br1018     Br  0.98703055  0.27475913  0.95302835    -0.03380
C1019       C  0.73644415  0.20694883  0.05128766    -0.10010
C1020       C  0.75826236  0.21058496  0.02162722     0.06180
C1021       C  0.74664955  0.19922040  0.98903620    -0.03780
C1022       C  0.71167442  0.18990010  0.98597865    -0.08230
C1023       C  0.68805090  0.19334095  0.01467219     0.05300
C1024       C  0.70148202  0.19798597  0.04812264    -0.03260
Br1025     Br  0.67219380  0.19999912  0.08958892    -0.02950
H1026       H  0.74575621  0.21405829  0.07675772     0.09210
H1027       H  0.70170243  0.18561922  0.96015819     0.07230
Br1028     Br  0.77480528  0.20215261  0.94702154    -0.03380
C1029       C  0.78912310  0.37504702  0.97532731    -0.10010
C1030       C  0.78059988  0.34879518  0.99857860     0.06180
C1031       C  0.74678703  0.34946288  0.01371845    -0.03780
C1032       C  0.72956971  0.38144368  0.01605545    -0.08230
C1033       C  0.75005736  0.41037519  0.00863654     0.05300
C1034       C  0.77341242  0.40731627  0.98033531    -0.03260
Br1035     Br  0.79916463  0.44668827  0.96500538    -0.02950
H1036       H  0.81303194  0.37389958  0.96137817     0.09210
H1037       H  0.70526243  0.38401182  0.03106386     0.07230
Br1038     Br  0.72661526  0.30984483  0.03461145    -0.03380
C1039       C  0.94110940  0.34569774  0.08885693    -0.10010
C1040       C  0.91165728  0.33391856  0.10774801     0.06180
C1041       C  0.91483833  0.32334241  0.14212454    -0.03780
C1042       C  0.94713462  0.32484477  0.15711968    -0.08230
C1043       C  0.97568976  0.33995246  0.13957125     0.05300
C1044       C  0.97326252  0.34842672  0.10454926    -0.03260
Br1045     Br  0.01285285  0.36381786  0.07764073    -0.02950
H1046       H  0.93929775  0.35249658  0.06173908     0.09210
H1047       H  0.94827224  0.31851301  0.18439526     0.07230
Br1048     Br  0.87555687  0.31055215  0.17135216    -0.03380
C1049       C  0.60075141  0.54689918  0.81146343    -0.10010
C1050       C  0.59675216  0.58303355  0.81312792     0.06180
C1051       C  0.62470114  0.60038536  0.83021733    -0.03780
C1052       C  0.65476847  0.58223295  0.84372454    -0.08230
C1053       C  0.65969280  0.54614482  0.83919433     0.05300
C1054       C  0.63188350  0.52970987  0.82241956    -0.03260
Br1055     Br  0.64102760  0.48478901  0.80582222    -0.02950
H1056       H  0.58192911  0.53222509  0.79708278     0.09210
H1057       H  0.67436743  0.59656946  0.85733922     0.07230
Br1058     Br  0.62284395  0.64950724  0.83593734    -0.03380
C1059       C  0.44420241  0.62994564  0.61033029    -0.10010
C1060       C  0.44749571  0.64498728  0.64426067     0.06180
C1061       C  0.43013620  0.67700238  0.64969657    -0.03780
C1062       C  0.41065210  0.69270323  0.62310709    -0.08230
C1063       C  0.40758967  0.67823922  0.58897431     0.05300
C1064       C  0.42485866  0.64594127  0.58326178    -0.03260
Br1065     Br  0.42275787  0.62246583  0.53922527    -0.02950
H1066       H  0.45763721  0.60562187  0.60438830     0.09210
H1067       H  0.39876114  0.71771127  0.62924925     0.07230
Br1068     Br  0.43549973  0.70275299  0.69160190    -0.03380
C1069       C  0.64800104  0.56781524  0.75006354    -0.10010
C1070       C  0.62119360  0.55000184  0.73303719     0.06180
C1071       C  0.62445831  0.51402781  0.72901831    -0.03780
C1072       C  0.65838250  0.49963933  0.73002606    -0.08230
C1073       C  0.68626542  0.52259661  0.73201139     0.05300
C1074       C  0.68034343  0.55136827  0.75364923    -0.03260
Br1075     Br  0.71866811  0.57776622  0.76959924    -0.02950
H1076       H  0.64565954  0.59507858  0.75618209     0.09210
H1077       H  0.66315286  0.47282303  0.72289947     0.07230
Br1078     Br  0.58505604  0.48553336  0.72141544    -0.03380
C1079       C  0.53009326  0.68540248  0.62133962    -0.10010
C1080       C  0.54999812  0.65422680  0.61846385     0.06180
C1081       C  0.54271760  0.63096261  0.59055165    -0.03780
C1082       C  0.52062660  0.64221221  0.56453884    -0.08230
C1083       C  0.51531503  0.67774011  0.56220587     0.05300
C1084       C  0.50922865  0.69528939  0.59383774    -0.03260
Br1085     Br  0.48453440  0.73864604  0.59523722    -0.02950
H1086       H  0.53057585  0.70173328  0.64443587     0.09210
H1087       H  0.51759518  0.62591247  0.54168928     0.07230
Br1088     Br  0.56218462  0.58505621  0.58479811    -0.03380
C1089       C  0.63019940  0.39967929  0.64274283    -0.10010
C1090       C  0.63228998  0.43531865  0.63560813     0.06180
C1091       C  0.59858386  0.45307855  0.63832425    -0.03780
C1092       C  0.56660659  0.43707443  0.64997006    -0.08230
C1093       C  0.56508342  0.40227688  0.65985434     0.05300
C1094       C  0.59788705  0.38356432  0.65395104    -0.03260
Br1095     Br  0.60073330  0.33512825  0.66285681    -0.02950
H1096       H  0.65421519  0.38430544  0.64155513     0.09210
H1097       H  0.54312238  0.45301805  0.65371316     0.07230
Br1098     Br  0.59379999  0.50114114  0.62837797    -0.03380
C1099       C  0.41734311  0.37680824  0.85890943    -0.10010
C1100       C  0.40342543  0.36553020  0.82667680     0.06180
C1101       C  0.37380087  0.34430748  0.83031273    -0.03780
C1102       C  0.36140458  0.33296987  0.86376457    -0.08230
C1103       C  0.37727594  0.34195693  0.89583584     0.05300
C1104       C  0.40571854  0.36462134  0.89213125    -0.03260
Br1105     Br  0.43165095  0.37735297  0.93218075    -0.02950
H1106       H  0.43864576  0.39466846  0.85846783     0.09210
H1107       H  0.34023080  0.31496852  0.86410132     0.07230
Br1108     Br  0.34777824  0.33154234  0.79067425    -0.03380
C1109       C  0.40323366  0.49926514  0.73220366    -0.10010
C1110       C  0.41121718  0.47265078  0.70796421     0.06180
C1111       C  0.42477970  0.48247067  0.67562726    -0.03780
C1112       C  0.44772333  0.50989631  0.67548433    -0.08230
C1113       C  0.45183790  0.52935016  0.70640861     0.05300
C1114       C  0.42611333  0.52691445  0.73339498    -0.03260
Br1115     Br  0.42268598  0.55792211  0.77282239    -0.02950
H1116       H  0.38704065  0.49408110  0.75505077     0.09210
H1117       H  0.46435845  0.51370363  0.65263030     0.07230
Br1118     Br  0.42492412  0.45136414  0.63644841    -0.03380
C1119       C  0.57801101  0.43700691  0.83139303    -0.10010
C1120       C  0.58122432  0.42955167  0.79559045     0.06180
C1121       C  0.61081226  0.41085043  0.78239108    -0.03780
C1122       C  0.63462117  0.39748488  0.80477866    -0.08230
C1123       C  0.63518928  0.41049844  0.83869863     0.05300
C1124       C  0.60532457  0.42830667  0.85320263    -0.03260
Br1125     Br  0.60173107  0.44493585  0.90051397    -0.02950
H1126       H  0.55406618  0.44877890  0.84237823     0.09210
H1127       H  0.65662916  0.38236529  0.79384934     0.07230
Br1128     Br  0.61849418  0.39984450  0.73425518    -0.03380
C1129       C  0.51471673  0.37125672  0.87975440    -0.10010
C1130       C  0.51681251  0.35352663  0.84779511     0.06180
C1131       C  0.54363105  0.32850362  0.84072968    -0.03780
C1132       C  0.56498391  0.31874341  0.86730414    -0.08230
C1133       C  0.56027573  0.33438908  0.89987722     0.05300
C1134       C  0.53686687  0.36219851  0.90576111    -0.03260
Br1135     Br  0.53386520  0.38769975  0.94910712    -0.02950
H1136       H  0.49622876  0.39249983  0.88433950     0.09210
H1137       H  0.58403319  0.29788384  0.86306343     0.07230
Br1138     Br  0.55458466  0.30832233  0.79560585    -0.03380
C1139       C  0.56887162  0.13706881  0.86417356    -0.10010
C1140       C  0.56057733  0.15454234  0.83272048     0.06180
C1141       C  0.56279308  0.19088787  0.83550645    -0.03780
C1142       C  0.57106114  0.20810272  0.86763262    -0.08230
C1143       C  0.57795561  0.19080700  0.89944896     0.05300
C1144       C  0.57759893  0.15432177  0.89628938    -0.03260
Br1145     Br  0.59022274  0.12665546  0.93494622    -0.02950
H1146       H  0.56806910  0.10921684  0.86417960     0.09210
H1147       H  0.57202683  0.23592667  0.86757320     0.07230
Br1148     Br  0.55523124  0.21845158  0.79564634    -0.03380
C1149       C  0.35571089  0.09735339  0.70349358    -0.10010
C1150       C  0.39123222  0.09194377  0.69088516     0.06180
C1151       C  0.39346426  0.07914313  0.65607075    -0.03780
C1152       C  0.36269973  0.06828409  0.63766699    -0.08230
C1153       C  0.32741572  0.07043738  0.65192733     0.05300
C1154       C  0.32498460  0.08759402  0.68477404    -0.03260
Br1155     Br  0.27971441  0.10106459  0.70404620    -0.02950
H1156       H  0.35133151  0.10965623  0.72876647     0.09210
H1157       H  0.36664437  0.05830873  0.61137020     0.07230
Br1158     Br  0.43756620  0.08119032  0.63112732    -0.03380
C1159       C  0.42643580  0.23830111  0.72703516    -0.10010
C1160       C  0.45831746  0.21962106  0.72590884     0.06180
C1161       C  0.48654678  0.23136659  0.70499027    -0.03780
C1162       C  0.48379638  0.26327117  0.68931276    -0.08230
C1163       C  0.45385575  0.28426521  0.69510727     0.05300
C1164       C  0.42385705  0.27014043  0.71075930    -0.03260
Br1165     Br  0.38001053  0.29488295  0.71272619    -0.02950
H1166       H  0.40372981  0.22831594  0.74077147     0.09210
H1167       H  0.50703196  0.27387552  0.67700959     0.07230
Br1168     Br  0.53126251  0.20764561  0.70037368    -0.03380
C1169       C  0.47640029  0.21274249  0.84869867    -0.10010
C1170       C  0.47875787  0.18144538  0.86660365     0.06180
C1171       C  0.49129351  0.18139457  0.90084981    -0.03780
C1172       C  0.49354640  0.21339491  0.91780820    -0.08230
C1173       C  0.47203845  0.23921138  0.90402392     0.05300
C1174       C  0.47613350  0.24331450  0.86814863    -0.03260
Br1175     Br  0.46045507  0.28478136  0.84699820    -0.02950
H1176       H  0.47128979  0.21345709  0.82127586     0.09210
H1177       H  0.49887870  0.21391081  0.94535751     0.07230
Br1178     Br  0.49477884  0.14029996  0.92771351    -0.03380
C1179       C  0.38743642  0.02805268  0.78376849    -0.10010
C1180       C  0.40847270  0.03352681  0.81251950     0.06180
C1181       C  0.39710376  0.02219948  0.84487782    -0.03780
C1182       C  0.36131785  0.02331151  0.85120287    -0.08230
C1183       C  0.33840994  0.03014283  0.82381059     0.05300
C1184       C  0.35134678  0.02923510  0.78938958    -0.03260
Br1185     Br  0.32220373  0.03785707  0.75080115    -0.02950
H1186       H  0.39761454  0.03419278  0.75807874     0.09210
H1187       H  0.35195613  0.02240495  0.87794976     0.07230
Br1188     Br  0.42808395  0.01968525  0.88342410    -0.03380
C1189       C  0.39346679  0.92818967  0.84366931    -0.10010
C1190       C  0.39163770  0.90586054  0.81438123     0.06180
C1191       C  0.35666123  0.89376505  0.80791496    -0.03780
C1192       C  0.32616161  0.90752611  0.82601817    -0.08230
C1193       C  0.32773276  0.93284277  0.85218525     0.05300
C1194       C  0.36259213  0.93946564  0.86339793    -0.03260
Br1195     Br  0.36939687  0.95714439  0.90961850    -0.02950
H1196       H  0.41901008  0.93556726  0.85246452     0.09210
H1197       H  0.30081027  0.89927430  0.81817591     0.07230
Br1198     Br  0.34586477  0.85999985  0.77258081    -0.03380
C1199       C  0.55008847  0.80353164  0.60298297    -0.10010
C1200       C  0.56080698  0.82070774  0.57198973     0.06180
C1201       C  0.55938757  0.85716402  0.57493578    -0.03780
C1202       C  0.54805814  0.87449539  0.60700268    -0.08230
C1203       C  0.53826084  0.85686009  0.63819506     0.05300
C1204       C  0.53924723  0.82052086  0.63475291    -0.03260
Br1205     Br  0.52468873  0.79184522  0.67212587    -0.02950
H1206       H  0.55118503  0.77564726  0.60299315     0.09210
H1207       H  0.54712990  0.90238399  0.60749911     0.07230
Br1208     Br  0.57383250  0.88431384  0.53630037    -0.03380
C1209       C  0.57531295  0.96977090  0.73830958    -0.10010
C1210       C  0.56379010  0.94913913  0.76608305     0.06180
C1211       C  0.55633268  0.96599504  0.79791844    -0.03780
C1212       C  0.54393340  0.99998138  0.79719720    -0.08230
C1213       C  0.54260420  0.01745391  0.76532966     0.05300
C1214       C  0.56196016  0.00362943  0.73645249    -0.03260
Br1215     Br  0.56538948  0.02658937  0.69275329    -0.02950
H1216       H  0.58527554  0.95736072  0.71446803     0.09210
H1217       H  0.53238603  0.01149415  0.82082762     0.07230
Br1218     Br  0.55064104  0.94075895  0.84003479    -0.03380
C1219       C  0.51717616  0.77885958  0.75904989    -0.10010
C1220       C  0.48116568  0.78391186  0.75397416     0.06180
C1221       C  0.45794179  0.75709030  0.76010373    -0.03780
C1222       C  0.47168974  0.72419657  0.76593714    -0.08230
C1223       C  0.50823591  0.71824089  0.76487514     0.05300
C1224       C  0.53089567  0.74630896  0.76466384    -0.03260
Br1225     Br  0.58074699  0.74185350  0.77029467    -0.02950
H1226       H  0.53506286  0.80012656  0.75690276     0.09210
H1227       H  0.45385927  0.70292502  0.76810583     0.07230
Br1228     Br  0.40796324  0.76432169  0.76086151    -0.03380
C1229       C  0.40020684  0.99380923  0.69492695    -0.10010
C1230       C  0.38568250  0.97496761  0.72266799     0.06180
C1231       C  0.35087832  0.96502790  0.71972142    -0.03780
C1232       C  0.34002533  0.95605482  0.68706695    -0.08230
C1233       C  0.35787148  0.96784800  0.65767412     0.05300
C1234       C  0.38795087  0.98760411  0.66146428    -0.03260
Br1235     Br  0.41754085  0.99666350  0.62163475    -0.02950
H1236       H  0.42593736  0.00484683  0.69723763     0.09210
H1237       H  0.31840641  0.93905235  0.68502905     0.07230
Br1238     Br  0.32286380  0.95083848  0.75820710    -0.03380
C1239       C  0.37539070  0.88523251  0.62318161    -0.10010
C1240       C  0.40775345  0.90076966  0.62032260     0.06180
C1241       C  0.43123992  0.88937839  0.59397932    -0.03780
C1242       C  0.43019293  0.85499563  0.58357748    -0.08230
C1243       C  0.40312288  0.83434063  0.59677852     0.05300
C1244       C  0.37467789  0.85025707  0.61629490    -0.03260
Br1245     Br  0.33706380  0.82625816  0.63957275    -0.02950
H1246       H  0.35617500  0.89541779  0.64207738     0.09210
H1247       H  0.45022264  0.84471272  0.56550996     0.07230
Br1248     Br  0.47004337  0.91683546  0.58003008    -0.03380
loop_ 
_geom_bond_atom_site_label_1 
_geom_bond_atom_site_label_2 
_geom_bond_distance 
_geom_bond_site_symmetry_2 
_ccdc_geom_bond_type 
O1          Cr19   1.943       .  S
O1            C9   1.264       .  A
O2          Cr19   2.150       .  S
O2            C3   1.313       .  A
C3            O4   1.266       .  A
C3         C1203   1.567       .  S
O4          Cr20   1.992       .  S
O5          Cr20   1.955       .  S
O5            C6   1.253       .  A
C6            O7   1.276       .  A
C6         C1240   1.436       .  S
O7          Cr21   1.956       .  S
O8          Cr21   1.999       .  S
O8            C9   1.281       .  A
C9         C1220   1.448       .  S
O10         Cr19   2.164       .  S
O10          C18   1.308       .  A
O11         Cr19   1.888       .  S
O11          C12   1.280       .  A
C12          O13   1.302       .  A
C12        C1210   1.468       .  S
O13         Cr20   2.080       .  S
O14         Cr20   1.966       .  S
O14          C15   1.270       .  A
C15          O16   1.285       .  A
C15        C1230   1.457       .  S
O16         Cr21   1.991       .  S
O17         Cr21   1.970       .  S
O17          C18   1.249       .  A
C18        C1190   1.569       .  S
Cr19         O22   1.568       .  S
Cr20         O22   1.728       .  S
Cr21         O22   1.679       .  S
O23         Cr41   2.039       .  S
O23          C31   1.266       .  A
O24         Cr41   2.160       .  S
O24          C25   1.316       .  A
C25          O26   1.266       .  A
C25        C1150   1.592       .  S
O26         Cr42   2.007       .  S
O27         Cr42   1.940       .  S
O27          C28   1.254       .  A
C28          O29   1.243       .  A
C28        C1180   1.445       .  S
O29         Cr43   1.921       .  S
O30         Cr43   1.937       .  S
O30          C31   1.247       .  A
C31        C1213   1.473       .  S
O32         Cr41   2.143       .  S
O32          C40   1.298       .  A
O33         Cr41   1.961       .  S
O33          C34   1.250       .  A
C34          O35   1.260       .  A
C34        C1160   1.464       .  S
O35         Cr42   1.981       .  S
O36         Cr42   1.991       .  S
O36          C37   1.267       .  A
C37          O38   1.237       .  A
C37        C1170   1.429       .  S
O38         Cr43   1.897       .  S
O39         Cr43   1.987       .  S
O39          C40   1.257       .  A
C40        C1140   1.585       .  S
Cr41         O44   1.742       .  S
Cr42         O44   1.772       .  S
Cr43         O44   1.808       .  S
O45         Cr63   1.980       .  S
O45          C53   1.265       .  A
O46         Cr63   2.171       .  S
O46          C47   1.316       .  A
C47          O48   1.260       .  A
C47        C1093   1.587       .  S
O48         Cr64   1.990       .  S
O49         Cr64   1.911       .  S
O49          C50   1.261       .  A
C50          O51   1.278       .  A
C50        C1120   1.417       .  S
O51         Cr65   1.984       .  S
O52         Cr65   1.962       .  S
O52          C53   1.277       .  A
C53        C1110   1.459       .  S
O54         Cr63   2.152       .  S
O54          C62   1.307       .  A
O55         Cr63   1.890       .  S
O55          C56   1.277       .  A
C56          O57   1.298       .  A
C56        C1163   1.457       .  S
O57         Cr64   2.071       .  S
O58         Cr64   1.951       .  S
O58          C59   1.257       .  A
C59          O60   1.263       .  A
C59        C1130   1.427       .  S
O60         Cr65   1.959       .  S
O61         Cr65   1.992       .  S
O61          C62   1.264       .  A
C62        C1100   1.567       .  S
Cr63         O66   1.588       .  S
Cr64         O66   1.723       .  S
Cr65         O66   1.722       .  S
O67         Cr85   1.963       .  S
O67          C75   1.251       .  A
O68         Cr85   2.162       .  S
O68          C69   1.322       .  A
C69          O70   1.272       .  A
C69        C1060   1.546       .  S
O70         Cr86   1.967       .  S
O71         Cr86   1.956       .  S
O71          C72   1.239       .  A
C72          O73   1.247       .  A
C72        C1080   1.467       .  S
O73         Cr87   1.986       .  S
O74         Cr87   1.938       .  S
O74          C75   1.250       .  A
C75        C1223   1.457       .  S
O76         Cr85   2.125       .  S
O76          C84   1.301       .  A
O77         Cr85   1.963       .  S
O77          C78   1.242       .  A
C78          O79   1.232       .  A
C78        C1113   1.461       .  S
O79         Cr86   1.935       .  S
O80         Cr86   1.966       .  S
O80          C81   1.269       .  A
C81          O82   1.270       .  A
C81        C1070   1.451       .  S
O82         Cr87   1.971       .  S
O83         Cr87   1.997       .  S
O83          C84   1.263       .  A
C84        C1050   1.562       .  S
Cr85         O88   1.740       .  S
Cr86         O88   1.788       .  S
Cr87         O88   1.792       .  S
O89        Cr107   1.977       .  S
O89          C97   1.252       .  A
O90        Cr107   2.174   1_556  S
O90          C91   1.303       .  A
C91          O92   1.246       .  A
C91         C993   1.589       .  S
O92        Cr108   1.982   1_556  S
O93        Cr108   1.937       .  S
O93          C94   1.259       .  A
C94          O95   1.275       .  A
C94        C1030   1.461   1_554  S
O95        Cr109   1.996       .  S
O96        Cr109   1.952       .  S
O96          C97   1.252       .  A
C97        C1020   1.467       .  S
O98        Cr107   2.145       .  S
O98         C106   1.308       .  A
O99        Cr107   1.958   1_556  S
O99         C100   1.256   1_556  A
C100        O101   1.276       .  A
C100       C1010   1.461       .  S
O101       Cr108   2.023       .  S
O102       Cr108   1.942       .  S
O102        C103   1.233       .  A
C103        O104   1.240       .  A
C103       C1040   1.442       .  S
O104       Cr109   1.952       .  S
O105       Cr109   1.987       .  S
O105        C106   1.262       .  A
C106       C1000   1.564       .  S
Cr107       O110   1.739       .  S
Cr108       O110   1.789       .  S
Cr109       O110   1.787       .  S
O111       Cr129   1.992       .  S
O111        C119   1.273       .  A
O112       Cr129   2.185   1_556  S
O112        C113   1.321       .  A
C113        O114   1.262       .  A
C113       C1143   1.579       .  S
O114       Cr130   1.973       .  S
O115       Cr130   1.990       .  S
O115        C116   1.268       .  A
C116        O117   1.261       .  A
C116       C1133   1.411       .  S
O117       Cr131   1.916       .  S
O118       Cr131   1.946   1_554  S
O118        C119   1.273       .  A
C119        C970   1.452       .  S
O120       Cr129   2.179       .  S
O120        C128   1.309       .  A
O121       Cr129   1.879       .  S
O121        C122   1.278       .  A
C122        O123   1.302   1_554  A
C122       C1023   1.466       .  S
O123       Cr130   2.092       .  S
O124       Cr130   1.919       .  S
O124        C125   1.241       .  A
C125        O126   1.267       .  A
C125        C983   1.427       .  S
O126       Cr131   2.021       .  S
O127       Cr131   1.965   1_554  S
O127        C128   1.246       .  A
C128        C960   1.576       .  S
Cr129       O132   1.597   1_554  S
Cr130       O132   1.718       .  S
Cr131       O132   1.729       .  S
O133       Cr151   1.981   1_554  S
O133        C141   1.268       .  A
O134       Cr151   2.206       .  S
O134        C135   1.305       .  A
C135        O136   1.217       .  A
C135       C1103   1.545       .  S
O136       Cr152   1.923       .  S
O137       Cr152   1.979       .  S
O137        C138   1.271       .  A
C138        O139   1.248       .  A
C138       C1173   1.479       .  S
O139       Cr153   1.941       .  S
O140       Cr153   1.978   1_554  S
O140        C141   1.260       .  A
C141        C973   1.467       .  S
O142       Cr151   2.170   1_554  S
O142        C150   1.310       .  A
O143       Cr151   1.940       .  S
O143        C144   1.256       .  A
C144        O145   1.276       .  A
C144        C940   1.468       .  S
O145       Cr152   2.062       .  S
O146       Cr152   1.912       .  S
O146        C147   1.245       .  A
C147        O148   1.271       .  A
C147        C950   1.460       .  S
O148       Cr153   2.004       .  S
O149       Cr153   1.952       .  S
O149        C150   1.256   1_556  A
C150        C933   1.552       .  S
Cr151       O154   1.734       .  S
Cr152       O154   1.763       .  S
Cr153       O154   1.744       .  S
O155       Cr173   1.926       .  S
O155        C163   1.237       .  A
O156       Cr173   2.170       .  S
O156        C157   1.309       .  A
C157        O158   1.247       .  A
C157        C903   1.554       .  S
O158       Cr174   1.952       .  S
O159       Cr174   2.018       .  S
O159        C160   1.275       .  A
C160        O161   1.253       .  A
C160        C920   1.441       .  S
O161       Cr175   1.892       .  S
O162       Cr175   2.079       .  S
O162        C163   1.269       .  A
C163       C1013   1.457       .  S
O164       Cr173   2.227   1_556  S
O164        C172   1.315       .  A
O165       Cr173   1.971   1_556  S
O165        C166   1.258       .  A
C166        O167   1.271   1_556  A
C166        C943   1.485       .  S
O167       Cr174   2.009       .  S
O168       Cr174   1.967       .  S
O168        C169   1.247       .  A
C169        O170   1.266       .  A
C169        C913   1.451       .  S
O170       Cr175   1.939       .  S
O171       Cr175   1.926   1_556  S
O171        C172   1.229       .  A
C172        C893   1.560       .  S
Cr173       O176   1.722       .  S
Cr174       O176   1.757       .  S
Cr175       O176   1.762       .  S
O177       Cr195   1.921       .  S
O177        C185   1.289       .  A
O178       Cr195   2.172       .  S
O178        C179   1.307       .  A
C179        O180   1.249       .  A
C179        C990   1.585       .  S
O180       Cr196   1.975       .  S
O181       Cr196   1.993       .  S
O181        C182   1.267       .  A
C182        O183   1.246       .  A
C182        C980   1.420       .  S
O183       Cr197   1.924       .  S
O184       Cr197   2.050       .  S
O184        C185   1.290       .  A
C185        C870   1.477       .  S
O186       Cr195   2.169       .  S
O186        C194   1.313       .  A
O187       Cr195   2.021       .  S
O187        C188   1.285       .  A
C188        O189   1.275       .  A
C188        C880   1.474       .  S
O189       Cr196   1.954       .  S
O190       Cr196   1.931       .  S
O190        C191   1.270       .  A
C191        O192   1.258       .  A
C191       C1123   1.448       .  S
O192       Cr197   1.987       .  S
O193       Cr197   1.980       .  S
O193        C194   1.269       .  A
C194       C1053   1.567       .  S
Cr195       O198   1.610       .  S
Cr196       O198   1.726       .  S
Cr197       O198   1.728       .  S
O199       Cr217   1.950       .  S
O199        C207   1.261       .  A
O200       Cr217   2.174       .  S
O200        C201   1.316       .  A
C201        O202   1.255       .  A
C201        C813   1.571       .  S
O202       Cr218   1.957       .  S
O203       Cr218   1.987       .  S
O203        C204   1.271       .  A
C204        O205   1.264       .  A
C204        C850   1.452       .  S
O205       Cr219   1.948       .  S
O206       Cr219   2.031       .  S
O206        C207   1.289       .  A
C207        C840   1.468       .  S
O208       Cr217   2.168       .  S
O208        C216   1.306       .  A
O209       Cr217   1.869       .  S
O209        C210   1.271       .  A
C210        O211   1.309       .  A
C210        C830   1.466       .  S
O211       Cr218   2.117       .  S
O212       Cr218   1.892       .  S
O212        C213   1.237       .  A
C213        O214   1.289       .  A
C213        C863   1.447       .  S
O214       Cr219   2.067       .  S
O215       Cr219   1.966       .  S
O215        C216   1.249       .  A
C216        C820   1.574       .  S
Cr217       O220   1.576       .  S
Cr218       O220   1.727       .  S
Cr219       O220   1.725       .  S
O221       Cr239   1.899       .  S
O221        C229   1.235       .  A
O222       Cr239   2.193       .  S
O222        C223   1.314       .  A
C223        O224   1.240       .  A
C223        C790   1.552       .  S
O224       Cr240   1.920       .  S
O225       Cr240   1.988       .  S
O225        C226   1.271       .  A
C226        O227   1.249       .  A
C226        C800   1.463       .  S
O227       Cr241   1.912       .  S
O228       Cr241   2.105       .  S
O228        C229   1.278       .  A
C229        C843   1.468       .  S
O230       Cr239   2.256       .  S
O230        C238   1.315       .  A
O231       Cr239   1.978       .  S
O231        C232   1.266       .  A
C232        O233   1.264       .  A
C232        C883   1.476       .  S
O233       Cr240   1.998       .  S
O234       Cr240   1.941       .  S
O234        C235   1.243       .  A
C235        O236   1.276       .  A
C235       C1073   1.455       .  S
O236       Cr241   1.972       .  S
O237       Cr241   1.939       .  S
O237        C238   1.233       .  A
C238       C1090   1.591       .  S
Cr239       O242   1.717       .  S
Cr240       O242   1.770       .  S
Cr241       O242   1.782       .  S
O243       Cr261   2.047       .  S
O243        C251   1.275       .  A
O244       Cr261   2.241       .  S
O244        C245   1.313       .  A
C245        O246   1.212       .  A
C245        C963   1.569       .  S
O246       Cr262   1.903       .  S
O247       Cr262   1.973       .  S
O247        C248   1.272       .  A
C248        O249   1.251       .  A
C248       C1033   1.453       .  S
O249       Cr263   1.943       .  S
O250       Cr263   1.967       .  S
O250        C251   1.243       .  A
C251        C873   1.492       .  S
O252       Cr261   2.206       .  S
O252        C260   1.323       .  A
O253       Cr261   1.937       .  S
O253        C254   1.253       .  A
C254        O255   1.271       .  A
C254        C833   1.470       .  S
O255       Cr262   2.053       .  S
O256       Cr262   1.948       .  S
O256        C257   1.253       .  A
C257        O258   1.254       .  A
C257        C780   1.431       .  S
O258       Cr263   1.970       .  S
O259       Cr263   1.947       .  S
O259        C260   1.260       .  A
C260        C770   1.567       .  S
Cr261       O264   1.729       .  S
Cr262       O264   1.765       .  S
Cr263       O264   1.755       .  S
O265       Cr283   1.834       .  S
O265        C273   1.270       .  A
O266       Cr283   2.135   1_545  S
O266        C267   1.305       .  A
C267        O268   1.265       .  A
C267        C890   1.573       .  S
O268       Cr284   1.994       .  S
O269       Cr284   1.984       .  S
O269        C270   1.272       .  A
C270        O271   1.264       .  A
C270        C953   1.450       .  S
O271       Cr285   1.966       .  S
O272       Cr285   2.121   1_565  S
O272        C273   1.316       .  A
C273        C753   1.442       .  S
O274       Cr283   2.142       .  S
O274        C282   1.305       .  A
O275       Cr283   1.967       .  S
O275        C276   1.258       .  A
C276        O277   1.271   1_565  A
C276        C763   1.448       .  S
O277       Cr284   1.973       .  S
O278       Cr284   1.971       .  S
O278        C279   1.271       .  A
C279        O280   1.260       .  A
C279       C1183   1.444       .  S
O280       Cr285   1.969       .  S
O281       Cr285   1.982   1_565  S
O281        C282   1.258       .  A
C282       C1193   1.564       .  S
Cr283       O286   1.577   1_565  S
Cr284       O286   1.716       .  S
Cr285       O286   1.718       .  S
O287       Cr305   1.945   1_545  S
O287        C295   1.257   1_545  A
O288       Cr305   2.235   1_545  S
O288        C289   1.320       .  A
C289        O290   1.247       .  A
C289        C700   1.572       .  S
O290       Cr306   1.941   1_545  S
O291       Cr306   1.989       .  S
O291        C292   1.277       .  A
C292        O293   1.249       .  A
C292        C740   1.463       .  S
O293       Cr307   1.956       .  S
O294       Cr307   1.997       .  S
O294        C295   1.264       .  A
C295        C710   1.470   1_565  S
O296       Cr305   2.196       .  S
O296        C304   1.312       .  A
O297       Cr305   1.921       .  S
O297        C298   1.240       .  A
C298        O299   1.263       .  A
C298        C720   1.469   1_565  S
O299       Cr306   2.064       .  S
O300       Cr306   1.931       .  S
O300        C301   1.251       .  A
C301        O302   1.268       .  A
C301        C733   1.448       .  S
O302       Cr307   1.996       .  S
O303       Cr307   1.943       .  S
O303        C304   1.243       .  A
C304        C690   1.578       .  S
Cr305       O308   1.736       .  S
Cr306       O308   1.784       .  S
Cr307       O308   1.766       .  S
O309       Cr327   1.930   1_565  S
O309        C317   1.244       .  A
O310       Cr327   2.152       .  S
O310        C311   1.303       .  A
C311        O312   1.263       .  A
C311       C1153   1.593       .  S
O312       Cr328   1.995       .  S
O313       Cr328   1.929   1_565  S
O313        C314   1.246       .  A
C314        O315   1.260       .  A
C314       C1233   1.441       .  S
O315       Cr329   1.979       .  S
O316       Cr329   1.989       .  S
O316        C317   1.265       .  A
C317        C760   1.471       .  S
O318       Cr327   2.177   1_565  S
O318        C326   1.311       .  A
O319       Cr327   1.987       .  S
O319        C320   1.253       .  A
C320        O321   1.255       .  A
C320        C723   1.463       .  S
O321       Cr328   1.959       .  S
O322       Cr328   1.945   1_565  S
O322        C323   1.258       .  A
C323        O324   1.254       .  A
C323        C680   1.460       .  S
O324       Cr329   1.954       .  S
O325       Cr329   1.960       .  S
O325        C326   1.242       .  A
C326        C670   1.573       .  S
Cr327       O330   1.729   1_545  S
Cr328       O330   1.796   1_545  S
Cr329       O330   1.780       .  S
O331       Cr349   1.944       .  S
O331        C339   1.239   1_545  A
O332       Cr349   2.121       .  S
O332        C333   1.299       .  A
C333        O334   1.242       .  A
C333        C930   1.527       .  S
O334       Cr350   1.911       .  S
O335       Cr350   1.969       .  S
O335        C336   1.263       .  A
C336        O337   1.267       .  A
C336        C910   1.469       .  S
O337       Cr351   1.991       .  S
O338       Cr351   1.960       .  S
O338        C339   1.241   1_545  A
C339        C750   1.456       .  S
O340       Cr349   2.170   1_565  S
O340        C348   1.315       .  A
O341       Cr349   1.966       .  S
O341        C342   1.256       .  A
C342        O343   1.252       .  A
C342        C713   1.463       .  S
O343       Cr350   1.956       .  S
O344       Cr350   1.919       .  S
O344        C345   1.245       .  A
C345        O346   1.246       .  A
C345        C663   1.436       .  S
O346       Cr351   1.962       .  S
O347       Cr351   1.977       .  S
O347        C348   1.269   1_545  A
C348        C653   1.557       .  S
Cr349       O352   1.744       .  S
Cr350       O352   1.807       .  S
Cr351       O352   1.789       .  S
O353       Cr371   2.003       .  S
O353        C361   1.264       .  A
O354       Cr371   2.215       .  S
O354        C355   1.316       .  A
C355        O356   1.243       .  A
C355        C613   1.587       .  S
O356       Cr372   1.935   1_655  S
O357       Cr372   2.001       .  S
O357        C358   1.282       .  A
C358        O359   1.244       .  A
C358        C643   1.438       .  S
O359       Cr373   1.927       .  S
O360       Cr373   1.966       .  S
O360        C361   1.244   1_455  A
C361        C630   1.457       .  S
O362       Cr371   2.181   1_455  S
O362        C370   1.318       .  A
O363       Cr371   1.914       .  S
O363        C364   1.246       .  A
C364        O365   1.275       .  A
C364        C623   1.482       .  S
O365       Cr372   2.058   1_655  S
O366       Cr372   1.951       .  S
O366        C367   1.253       .  A
C367        O368   1.258       .  A
C367        C743   1.461       .  S
O368       Cr373   1.981       .  S
O369       Cr373   1.896       .  S
O369        C370   1.242       .  A
C370        C650   1.523       .  S
Cr371       O374   1.730   1_655  S
Cr372       O374   1.760       .  S
Cr373       O374   1.783       .  S
O375       Cr393   1.832       .  S
O375        C383   1.268       .  A
O376       Cr393   2.147       .  S
O376        C377   1.300       .  A
C377        O378   1.251       .  A
C377        C900   1.565       .  S
O378       Cr394   1.967       .  S
O379       Cr394   2.025       .  S
O379        C380   1.270   1_455  A
C380        O381   1.248   1_655  A
C380       C1043   1.448       .  S
O381       Cr395   1.939   1_455  S
O382       Cr395   2.120       .  S
O382        C383   1.312   1_655  A
C383        C590   1.430       .  S
O384       Cr393   2.165   1_655  S
O384        C392   1.313       .  A
O385       Cr393   1.987       .  S
O385        C386   1.267       .  A
C386        O387   1.271       .  A
C386        C600   1.456       .  S
O387       Cr394   1.963       .  S
O388       Cr394   1.928   1_655  S
O388        C389   1.262       .  A
C389        O390   1.276       .  A
C389        C783   1.397       .  S
O390       Cr395   1.971       .  S
O391       Cr395   1.960       .  S
O391        C392   1.255       .  A
C392        C823   1.575       .  S
Cr393       O396   1.589   1_455  S
Cr394       O396   1.747   1_455  S
Cr395       O396   1.722       .  S
O397       Cr415   2.030       .  S
O397        C405   1.288       .  A
O398       Cr415   2.182   1_455  S
O398        C399   1.313       .  A
C399        O400   1.265   1_455  A
C399        C570   1.582       .  S
O400       Cr416   1.981       .  S
O401       Cr416   2.005       .  S
O401        C402   1.275       .  A
C402        O403   1.240       .  A
C402        C580   1.425       .  S
O403       Cr417   1.867       .  S
O404       Cr417   1.928       .  S
O404        C405   1.274       .  A
C405        C633   1.461       .  S
O406       Cr415   2.167       .  S
O406        C414   1.296       .  A
O407       Cr415   1.854   1_455  S
O407        C408   1.283       .  A
C408        O409   1.312       .  A
C408        C603   1.473       .  S
O409       Cr416   2.123   1_455  S
O410       Cr416   1.896       .  S
O410        C411   1.248       .  A
C411        O412   1.280       .  A
C411        C860   1.455       .  S
O412       Cr417   2.026       .  S
O413       Cr417   1.945       .  S
O413        C414   1.228       .  A
C414        C773   1.562       .  S
Cr415       O418   1.602       .  S
Cr416       O418   1.731       .  S
Cr417       O418   1.746       .  S
O419       Cr437   1.938       .  S
O419        C427   1.249   1_655  A
O420       Cr437   2.204       .  S
O420        C421   1.322       .  A
C421        O422   1.239       .  A
C421       C1003   1.554       .  S
O422       Cr438   1.909       .  S
O423       Cr438   2.046   1_455  S
O423        C424   1.278       .  A
C424        O425   1.247       .  A
C424        C923   1.434       .  S
O425       Cr439   1.924       .  S
O426       Cr439   1.982       .  S
O426        C427   1.250       .  A
C427        C593   1.447       .  S
O428       Cr437   2.227   1_455  S
O428        C436   1.324       .  A
O429       Cr437   1.939       .  S
O429        C430   1.248       .  A
C430        O431   1.269       .  A
C430        C620   1.482       .  S
O431       Cr438   2.016       .  S
O432       Cr438   1.929   1_455  S
O432        C433   1.239       .  A
C433        O434   1.262       .  A
C433        C660   1.400       .  S
O434       Cr439   1.938       .  S
O435       Cr439   1.902       .  S
O435        C436   1.233       .  A
C436        C703   1.561       .  S
Cr437       O440   1.720   1_655  S
Cr438       O440   1.765   1_655  S
Cr439       O440   1.740       .  S
O441       Cr459   1.855       .  S
O441        C449   1.272       .  A
O442       Cr459   2.148       .  S
O442        C443   1.301       .  A
C443        O444   1.260       .  A
C443        C610   1.585       .  S
O444       Cr460   1.993       .  S
O445       Cr460   2.019       .  S
O445        C446   1.270       .  A
C446        O447   1.241       .  A
C446        C583   1.437       .  S
O447       Cr461   1.924       .  S
O448       Cr461   2.110       .  S
O448        C449   1.311       .  A
C449        C550   1.467       .  S
O450       Cr459   2.154       .  S
O450        C458   1.310       .  A
O451       Cr459   1.979       .  S
O451        C452   1.268       .  A
C452        O453   1.279       .  A
C452        C560   1.461       .  S
O453       Cr460   1.985       .  S
O454       Cr460   1.962       .  S
O454        C455   1.269       .  A
C455        O456   1.276       .  A
C455        C853   1.427       .  S
O456       Cr461   1.985       .  S
O457       Cr461   1.983       .  S
O457        C458   1.261       .  A
C458        C793   1.571       .  S
Cr459       O462   1.608       .  S
Cr460       O462   1.749       .  S
Cr461       O462   1.713       .  S
O463       Cr481   1.878       .  S
O463        C471   1.283       .  A
O464       Cr481   2.151       .  S
O464        C465   1.312       .  A
C465        O466   1.264       .  A
C465        C693   1.576       .  S
O466       Cr482   2.000       .  S
O467       Cr482   1.970       .  S
O467        C468   1.269       .  A
C468        O469   1.273       .  A
C468        C683   1.456       .  S
O469       Cr483   1.973       .  S
O470       Cr483   2.084       .  S
O470        C471   1.301       .  A
C471        C530   1.468       .  S
O472       Cr481   2.141       .  S
O472        C480   1.307       .  A
O473       Cr481   1.964       .  S
O473        C474   1.262       .  A
C474        O475   1.273       .  A
C474        C540   1.439       .  S
O475       Cr482   1.961       .  S
O476       Cr482   1.967       .  S
O476        C477   1.268       .  A
C477        O478   1.258       .  A
C477       C1243   1.446       .  S
O478       Cr483   1.929       .  S
O479       Cr483   1.954       .  S
O479        C480   1.260       .  A
C480       C1063   1.552       .  S
Cr481       O484   1.586       .  S
Cr482       O484   1.693       .  S
Cr483       O484   1.720       .  S
O485       Cr503   1.954       .  S
O485        C493   1.253       .  A
O486       Cr503   2.175       .  S
O486        C487   1.300       .  A
C487        O488   1.228       .  A
C487        C810   1.557       .  S
O488       Cr504   1.947       .  S
O489       Cr504   1.987       .  S
O489        C490   1.254       .  A
C490        O491   1.259       .  A
C490        C803   1.457       .  S
O491       Cr505   1.962       .  S
O492       Cr505   1.974       .  S
O492        C493   1.261       .  A
C493        C563   1.470       .  S
O494       Cr503   2.170       .  S
O494        C502   1.311       .  A
O495       Cr503   2.002       .  S
O495        C496   1.265       .  A
C496        O497   1.269       .  A
C496        C543   1.456       .  S
O497       Cr504   1.944       .  S
O498       Cr504   1.956       .  S
O498        C499   1.257       .  A
C499        O500   1.258       .  A
C499       C1083   1.469       .  S
O500       Cr505   1.972       .  S
O501       Cr505   1.938       .  S
O501        C502   1.244       .  A
C502       C1200   1.564       .  S
Cr503       O506   1.736       .  S
Cr504       O506   1.787       .  S
Cr505       O506   1.769       .  S
O507       Cr525   1.968       .  S
O507        C515   1.250       .  A
O508       Cr525   2.157       .  S
O508        C509   1.302       .  A
C509        O510   1.255       .  A
C509        C573   1.588       .  S
O510       Cr526   1.982       .  S
O511       Cr526   1.898       .  S
O511        C512   1.238       .  A
C512        O513   1.260       .  A
C512        C640   1.422       .  S
O513       Cr527   2.002       .  S
O514       Cr527   1.989       .  S
O514        C515   1.268       .  A
C515        C553   1.447       .  S
O516       Cr525   2.152       .  S
O516        C524   1.311       .  A
O517       Cr525   2.038       .  S
O517        C518   1.267       .  A
C518        O519   1.245       .  A
C518        C533   1.460       .  S
O519       Cr526   1.918       .  S
O520       Cr526   1.930       .  S
O520        C521   1.252       .  A
C521        O522   1.266       .  A
C521        C730   1.465       .  S
O522       Cr527   1.967       .  S
O523       Cr527   1.984       .  S
O523        C524   1.256       .  A
C524        C673   1.573       .  S
Cr525       O528   1.738       .  S
Cr526       O528   1.773       .  S
Cr527       O528   1.763       .  S
C529        C530   1.396       .  A
C529        C534   1.391       .  A
C529        H536   1.084       .  S
C530        C531   1.417       .  A
C531        C532   1.395       .  A
C531       Br538   1.922       .  S
C532        C533   1.394       .  A
C532        H537   1.083       .  S
C533        C534   1.415       .  A
C534       Br535   1.923       .  S
C539        C540   1.404       .  A
C539        C544   1.385       .  A
C539        H546   1.084       .  S
C540        C541   1.401       .  A
C541        C542   1.391       .  A
C541       Br548   1.918       .  S
C542        C543   1.405       .  A
C542        H547   1.084       .  S
C543        C544   1.396       .  A
C544       Br545   1.917       .  S
C549        C550   1.394       .  A
C549        C554   1.374       .  A
C549        H556   1.078       .  S
C550        C551   1.415       .  A
C551        C552   1.402       .  A
C551       Br558   1.919       .  S
C552        C553   1.406   1_655  A
C552        H557   1.083   1_655  S
C553        C554   1.388   1_455  A
C554       Br555   1.882   1_655  S
C559        C560   1.393       .  A
C559        C564   1.390       .  A
C559        H566   1.084       .  S
C560        C561   1.405       .  A
C561        C562   1.396       .  A
C561       Br568   1.904       .  S
C562        C563   1.399       .  A
C562        H567   1.082       .  S
C563        C564   1.421       .  A
C564       Br565   1.923       .  S
C569        C570   1.434       .  A
C569        C574   1.441       .  A
C569        H576   1.082   1_455  S
C570        C571   1.421       .  A
C571        C572   1.442       .  A
C571       Br578   1.915       .  S
C572        C573   1.435       .  A
C572        H577   1.081       .  S
C573        C574   1.419       .  A
C574       Br575   1.915       .  S
C579        C580   1.384       .  A
C579        C584   1.359       .  A
C579        H586   1.084       .  S
C580        C581   1.422       .  A
C581        C582   1.388       .  A
C581       Br588   1.928       .  S
C582        C583   1.392       .  A
C582        H587   1.084       .  S
C583        C584   1.410       .  A
C584       Br585   1.908       .  S
C589        C590   1.395       .  A
C589        C594   1.383       .  A
C589        H596   1.085       .  S
C590        C591   1.395   1_455  A
C591        C592   1.383       .  A
C591       Br598   1.919       .  S
C592        C593   1.405   1_655  A
C592        H597   1.084       .  S
C593        C594   1.411       .  A
C594       Br595   1.921       .  S
C599        C600   1.402       .  A
C599        C604   1.392       .  A
C599        H606   1.084       .  S
C600        C601   1.402       .  A
C601        C602   1.391       .  A
C601       Br608   1.918       .  S
C602        C603   1.408       .  A
C602        H607   1.084       .  S
C603        C604   1.409       .  A
C604       Br605   1.920       .  S
C609        C610   1.439       .  A
C609        C614   1.450       .  A
C609        H616   1.082       .  S
C610        C611   1.415       .  A
C611        C612   1.433       .  A
C611       Br618   1.910       .  S
C612        C613   1.437       .  A
C612        H617   1.082       .  S
C613        C614   1.421       .  A
C614       Br615   1.911       .  S
C619        C620   1.418       .  A
C619        C624   1.400   1_545  A
C619        H626   1.083       .  S
C620        C621   1.402       .  A
C621        C622   1.394   1_545  A
C621       Br628   1.921       .  S
C622        C623   1.415       .  A
C622        H627   1.084       .  S
C623        C624   1.401       .  A
C624       Br625   1.916   1_655  S
C629        C630   1.410   1_455  A
C629        C634   1.390       .  A
C629        H636   1.083       .  S
C630        C631   1.395       .  A
C631        C632   1.388       .  A
C631       Br638   1.917       .  S
C632        C633   1.412       .  A
C632        H637   1.084       .  S
C633        C634   1.402   1_655  A
C634       Br635   1.921       .  S
C639        C640   1.396       .  A
C639        C644   1.386       .  A
C639        H646   1.073       .  S
C640        C641   1.407       .  A
C641        C642   1.392       .  A
C641       Br648   1.916       .  S
C642        C643   1.396       .  A
C642        H647   1.083       .  S
C643        C644   1.390       .  A
C644       Br645   1.911   1_455  S
C649        C650   1.427       .  A
C649        C654   1.439       .  A
C649        H656   1.083       .  S
C650        C651   1.396       .  A
C651        C652   1.427       .  A
C651       Br658   1.921       .  S
C652        C653   1.413       .  A
C652        H657   1.060   1_565  S
C653        C654   1.420       .  A
C654       Br655   1.912       .  S
C659        C660   1.399       .  A
C659        C664   1.382       .  A
C659        H666   1.085       .  S
C660        C661   1.393       .  A
C661        C662   1.373       .  A
C661       Br668   1.911       .  S
C662        C663   1.409       .  A
C662        H667   1.082       .  S
C663        C664   1.415       .  A
C664       Br665   1.926       .  S
C669        C670   1.440       .  A
C669        C674   1.437       .  A
C669        H676   1.082       .  S
C670        C671   1.408       .  A
C671        C672   1.437       .  A
C671       Br678   1.904       .  S
C672        C673   1.439       .  A
C672        H677   1.082       .  S
C673        C674   1.413       .  A
C674       Br675   1.917       .  S
C679        C680   1.406       .  A
C679        C684   1.397       .  A
C679        H686   1.084       .  S
C680        C681   1.389       .  A
C681        C682   1.379       .  A
C681       Br688   1.927       .  S
C682        C683   1.410       .  A
C682        H687   1.079       .  S
C683        C684   1.410       .  A
C684       Br685   1.918       .  S
C689        C690   1.407       .  A
C689        C694   1.445       .  A
C689        H696   1.080       .  S
C690        C691   1.437       .  A
C691        C692   1.434       .  A
C691       Br698   1.925       .  S
C692        C693   1.405       .  A
C692        H697   1.081       .  S
C693        C694   1.449       .  A
C694       Br695   1.926       .  S
C699        C700   1.411       .  A
C699        C704   1.440       .  A
C699        H706   1.083       .  S
C700        C701   1.444       .  A
C701        C702   1.438       .  A
C701       Br708   1.912       .  S
C702        C703   1.410       .  A
C702        H707   1.083       .  S
C703        C704   1.443       .  A
C704       Br705   1.911       .  S
C709        C710   1.407       .  A
C709        C714   1.387       .  A
C709        H716   1.084       .  S
C710        C711   1.408   1_545  A
C711        C712   1.394   1_565  A
C711       Br718   1.920       .  S
C712        C713   1.405       .  A
C712        H717   1.084   1_545  S
C713        C714   1.408       .  A
C714       Br715   1.925       .  S
C719        C720   1.407       .  A
C719        C724   1.384       .  A
C719        H726   1.082       .  S
C720        C721   1.396       .  A
C721        C722   1.406       .  A
C721       Br728   1.911       .  S
C722        C723   1.413       .  A
C722        H727   1.083       .  S
C723        C724   1.399       .  A
C724       Br725   1.922       .  S
C729        C730   1.386       .  A
C729        C734   1.384       .  A
C729        H736   1.075       .  S
C730        C731   1.399       .  A
C731        C732   1.397       .  A
C731       Br738   1.918       .  S
C732        C733   1.407       .  A
C732        H737   1.083       .  S
C733        C734   1.425       .  A
C734       Br735   1.923       .  S
C739        C740   1.389       .  A
C739        C744   1.398       .  A
C739        H746   1.070       .  S
C740        C741   1.398       .  A
C741        C742   1.398       .  A
C741       Br748   1.911       .  S
C742        C743   1.412       .  A
C742        H747   1.083       .  S
C743        C744   1.421       .  A
C744       Br745   1.926       .  S
C749        C750   1.404       .  A
C749        C754   1.384   1_554  A
C749        H756   1.084       .  S
C750        C751   1.409       .  A
C751        C752   1.386   1_554  A
C751       Br758   1.921       .  S
C752        C753   1.398       .  A
C752        H757   1.084       .  S
C753        C754   1.401       .  A
C754       Br755   1.921       .  S
C759        C760   1.401       .  A
C759        C764   1.396       .  A
C759        H766   1.083       .  S
C760        C761   1.433       .  A
C761        C762   1.386       .  A
C761       Br768   1.931   1_565  S
C762        C763   1.385       .  A
C762        H767   1.084       .  S
C763        C764   1.400       .  A
C764       Br765   1.905       .  S
C769        C770   1.434       .  A
C769        C774   1.431       .  A
C769        H776   1.071       .  S
C770        C771   1.416       .  A
C771        C772   1.436       .  A
C771       Br778   1.914       .  S
C772        C773   1.436       .  A
C772        H777   1.083       .  S
C773        C774   1.400       .  A
C774       Br775   1.908       .  S
C779        C780   1.402       .  A
C779        C784   1.372       .  A
C779        H786   1.084       .  S
C780        C781   1.413       .  A
C781        C782   1.377       .  A
C781       Br788   1.912       .  S
C782        C783   1.389       .  A
C782        H787   1.085       .  S
C783        C784   1.393       .  A
C784       Br785   1.915       .  S
C789        C790   1.427       .  A
C789        C794   1.430       .  A
C789        H796   1.083       .  S
C790        C791   1.408       .  A
C791        C792   1.440       .  A
C791       Br798   1.912       .  S
C792        C793   1.438       .  A
C792        H797   1.082       .  S
C793        C794   1.418       .  A
C794       Br795   1.910       .  S
C799        C800   1.411       .  A
C799        C804   1.376       .  A
C799        H806   1.073       .  S
C800        C801   1.395       .  A
C801        C802   1.394       .  A
C801       Br808   1.915       .  S
C802        C803   1.412       .  A
C802        H807   1.072       .  S
C803        C804   1.391       .  A
C804       Br805   1.912       .  S
C809        C810   1.432       .  A
C809        C814   1.428       .  A
C809        H816   1.082       .  S
C810        C811   1.403       .  A
C811        C812   1.438       .  A
C811       Br818   1.913       .  S
C812        C813   1.440       .  A
C812        H817   1.079       .  S
C813        C814   1.409       .  A
C814       Br815   1.906       .  S
C819        C820   1.437       .  A
C819        C824   1.440       .  A
C819        H826   1.082       .  S
C820        C821   1.411       .  A
C821        C822   1.435       .  A
C821       Br828   1.908       .  S
C822        C823   1.438       .  A
C822        H827   1.082       .  S
C823        C824   1.417       .  A
C824       Br825   1.911       .  S
C829        C830   1.394       .  A
C829        C834   1.389       .  A
C829        H836   1.084       .  S
C830        C831   1.415       .  A
C831        C832   1.403       .  A
C831       Br838   1.919       .  S
C832        C833   1.399       .  A
C832        H837   1.083       .  S
C833        C834   1.416       .  A
C834       Br835   1.922       .  S
C839        C840   1.386       .  A
C839        C844   1.391       .  A
C839        H846   1.084       .  S
C840        C841   1.418       .  A
C841        C842   1.401       .  A
C841       Br848   1.903       .  S
C842        C843   1.394       .  A
C842        H847   1.083       .  S
C843        C844   1.427       .  A
C844       Br845   1.915       .  S
C849        C850   1.400       .  A
C849        C854   1.387       .  A
C849        H856   1.083       .  S
C850        C851   1.418       .  A
C851        C852   1.384       .  A
C851       Br858   1.916       .  S
C852        C853   1.388       .  A
C852        H857   1.084       .  S
C853        C854   1.398       .  A
C854       Br855   1.905       .  S
C859        C860   1.385       .  A
C859        C864   1.374       .  A
C859        H866   1.076       .  S
C860        C861   1.415       .  A
C861        C862   1.384       .  A
C861       Br868   1.923       .  S
C862        C863   1.390       .  A
C862        H867   1.076       .  S
C863        C864   1.426       .  A
C864       Br865   1.933       .  S
C869        C870   1.391       .  A
C869        C874   1.399   1_556  A
C869        H876   1.084       .  S
C870        C871   1.419       .  A
C871        C872   1.400   1_556  A
C871       Br878   1.921       .  S
C872        C873   1.398       .  A
C872        H877   1.083       .  S
C873        C874   1.433       .  A
C874       Br875   1.928       .  S
C879        C880   1.408       .  A
C879        C884   1.390       .  A
C879        H886   1.084       .  S
C880        C881   1.405       .  A
C881        C882   1.398       .  A
C881       Br888   1.919       .  S
C882        C883   1.412       .  A
C882        H887   1.083       .  S
C883        C884   1.406       .  A
C884       Br885   1.922       .  S
C889        C890   1.407       .  A
C889        C894   1.431       .  A
C889        H896   1.083       .  S
C890        C891   1.446       .  A
C891        C892   1.439       .  A
C891       Br898   1.921       .  S
C892        C893   1.411       .  A
C892        H897   1.083       .  S
C893        C894   1.441       .  A
C894       Br895   1.916       .  S
C899        C900   1.431       .  A
C899        C904   1.435       .  A
C899        H906   1.083       .  S
C900        C901   1.419       .  A
C901        C902   1.429       .  A
C901       Br908   1.919       .  S
C902        C903   1.421       .  A
C902        H907   1.064       .  S
C903        C904   1.417       .  A
C904       Br905   1.915       .  S
C909        C910   1.418       .  A
C909        C914   1.396       .  A
C909        H916   1.082       .  S
C910        C911   1.415       .  A
C911        C912   1.406   1_554  A
C911       Br918   1.914   1_554  S
C912        C913   1.407   1_556  A
C912        H917   1.082       .  S
C913        C914   1.396       .  A
C914       Br915   1.920       .  S
C919        C920   1.405       .  A
C919        C924   1.380       .  A
C919        H926   1.080       .  S
C920        C921   1.392       .  A
C921        C922   1.395       .  A
C921       Br928   1.912       .  S
C922        C923   1.409       .  A
C922        H927   1.083       .  S
C923        C924   1.388       .  A
C924       Br925   1.919       .  S
C929        C930   1.423       .  A
C929        C934   1.425       .  A
C929        H936   1.083       .  S
C930        C931   1.403       .  A
C931        C932   1.429       .  A
C931       Br938   1.912       .  S
C932        C933   1.428       .  A
C932        H937   1.079   1_554  S
C933        C934   1.420       .  A
C934       Br935   1.916       .  S
C939        C940   1.397       .  A
C939        C944   1.402       .  A
C939        H946   1.081       .  S
C940        C941   1.410       .  A
C941        C942   1.394       .  A
C941       Br948   1.919       .  S
C942        C943   1.402       .  A
C942        H947   1.084       .  S
C943        C944   1.420       .  A
C944       Br945   1.921       .  S
C949        C950   1.395       .  A
C949        C954   1.384       .  A
C949        H956   1.084       .  S
C950        C951   1.418       .  A
C951        C952   1.387       .  A
C951       Br958   1.925       .  S
C952        C953   1.396       .  A
C952        H957   1.085       .  S
C953        C954   1.414       .  A
C954       Br955   1.916       .  S
C959        C960   1.401       .  A
C959        C964   1.431       .  A
C959        H966   1.083       .  S
C960        C961   1.452       .  A
C961        C962   1.442       .  A
C961       Br968   1.924       .  S
C962        C963   1.409       .  A
C962        H967   1.083       .  S
C963        C964   1.450       .  A
C964       Br965   1.918       .  S
C969        C970   1.407       .  A
C969        C974   1.390       .  A
C969        H976   1.084       .  S
C970        C971   1.398       .  A
C971        C972   1.388       .  A
C971       Br978   1.920       .  S
C972        C973   1.413       .  A
C972        H977   1.084       .  S
C973        C974   1.402       .  A
C974       Br975   1.919       .  S
C979        C980   1.414       .  A
C979        C984   1.378       .  A
C979        H986   1.084       .  S
C980        C981   1.384       .  A
C981        C982   1.357       .  A
C981       Br988   1.905       .  S
C982        C983   1.412       .  A
C982        H987   1.084       .  S
C983        C984   1.392       .  A
C984       Br985   1.915       .  S
C989        C990   1.413       .  A
C989        C994   1.446       .  A
C989        H996   1.082       .  S
C990        C991   1.446       .  A
C991        C992   1.441       .  A
C991       Br998   1.926       .  S
C992        C993   1.410       .  A
C992        H997   1.083       .  S
C993        C994   1.454       .  A
C994       Br995   1.922       .  S
C999       C1000   1.423       .  A
C999       C1004   1.438       .  A
C999       H1006   1.082       .  S
C1000      C1001   1.422       .  A
C1001      C1002   1.442       .  A
C1001     Br1008   1.914       .  S
C1002      C1003   1.428       .  A
C1002      H1007   1.083       .  S
C1003      C1004   1.423       .  A
C1004     Br1005   1.916       .  S
C1009      C1010   1.409       .  A
C1009      C1014   1.406       .  A
C1009      H1016   1.083       .  S
C1010      C1011   1.407   1_554  A
C1011      C1012   1.396   1_655  A
C1011     Br1018   1.922       .  S
C1012      C1013   1.406   1_556  A
C1012      H1017   1.083       .  S
C1013      C1014   1.400   1_455  A
C1014     Br1015   1.913   1_655  S
C1019      C1020   1.403       .  A
C1019      C1024   1.393       .  A
C1019      H1026   1.084       .  S
C1020      C1021   1.407   1_554  A
C1021      C1022   1.396       .  A
C1021     Br1028   1.920       .  S
C1022      C1023   1.407   1_556  A
C1022      H1027   1.084       .  S
C1023      C1024   1.407       .  A
C1024     Br1025   1.920       .  S
C1029      C1030   1.404       .  A
C1029      C1034   1.386       .  A
C1029      H1036   1.044       .  S
C1030      C1031   1.399   1_556  A
C1031      C1032   1.393       .  A
C1031     Br1038   1.913       .  S
C1032      C1033   1.410       .  A
C1032      H1037   1.080       .  S
C1033      C1034   1.388   1_554  A
C1034     Br1035   1.925       .  S
C1039      C1040   1.409       .  A
C1039      C1044   1.386       .  A
C1039      H1046   1.083       .  S
C1040      C1041   1.398       .  A
C1041      C1042   1.376       .  A
C1041     Br1048   1.925       .  S
C1042      C1043   1.408       .  A
C1042      H1047   1.083       .  S
C1043      C1044   1.396       .  A
C1044     Br1045   1.917   1_655  S
C1049      C1050   1.408       .  A
C1049      C1054   1.427       .  A
C1049      H1056   1.083       .  S
C1050      C1051   1.440       .  A
C1051      C1052   1.447       .  A
C1051     Br1058   1.916       .  S
C1052      C1053   1.417       .  A
C1052      H1057   1.082       .  S
C1053      C1054   1.414       .  A
C1054     Br1055   1.870       .  S
C1059      C1060   1.430       .  A
C1059      C1064   1.435       .  A
C1059      H1066   1.083       .  S
C1060      C1061   1.406       .  A
C1061      C1062   1.419       .  A
C1061     Br1068   1.899       .  S
C1062      C1063   1.427       .  A
C1062      H1067   1.083       .  S
C1063      C1064   1.416       .  A
C1064     Br1065   1.913       .  S
C1069      C1070   1.415       .  A
C1069      C1074   1.389       .  A
C1069      H1076   1.082       .  S
C1070      C1071   1.405       .  A
C1071      C1072   1.400       .  A
C1071     Br1078   1.910       .  S
C1072      C1073   1.404       .  A
C1072      H1077   1.083       .  S
C1073      C1074   1.392       .  A
C1074     Br1075   1.911       .  S
C1079      C1080   1.417       .  A
C1079      C1084   1.395       .  A
C1079      H1086   1.083       .  S
C1080      C1081   1.427       .  A
C1081      C1082   1.395       .  A
C1081     Br1088   1.924       .  S
C1082      C1083   1.395       .  A
C1082      H1087   1.084       .  S
C1083      C1084   1.395       .  A
C1084     Br1085   1.911       .  S
C1089      C1090   1.419       .  A
C1089      C1094   1.451       .  A
C1089      H1096   1.082       .  S
C1090      C1091   1.447       .  A
C1091      C1092   1.443       .  A
C1091     Br1098   1.917       .  S
C1092      C1093   1.412       .  A
C1092      H1097   1.083       .  S
C1093      C1094   1.444       .  A
C1094     Br1095   1.919       .  S
C1099      C1100   1.427       .  A
C1099      C1104   1.431       .  A
C1099      H1106   1.079       .  S
C1100      C1101   1.417       .  A
C1101      C1102   1.437       .  A
C1101     Br1108   1.905       .  S
C1102      C1103   1.429       .  A
C1102      H1107   1.078       .  S
C1103      C1104   1.416       .  A
C1104     Br1105   1.916       .  S
C1109      C1110   1.403       .  A
C1109      C1114   1.398       .  A
C1109      H1116   1.083       .  S
C1110      C1111   1.395       .  A
C1111      C1112   1.392       .  A
C1111     Br1118   1.914       .  S
C1112      C1113   1.412       .  A
C1112      H1117   1.083       .  S
C1113      C1114   1.413       .  A
C1114     Br1115   1.919       .  S
C1119      C1120   1.403       .  A
C1119      C1124   1.395       .  A
C1119      H1126   1.084       .  S
C1120      C1121   1.407       .  A
C1121      C1122   1.369       .  A
C1121     Br1128   1.905       .  S
C1122      C1123   1.391       .  A
C1122      H1127   1.085       .  S
C1123      C1124   1.416       .  A
C1124     Br1125   1.920       .  S
C1129      C1130   1.397       .  A
C1129      C1134   1.372       .  A
C1129      H1136   1.083       .  S
C1130      C1131   1.414       .  A
C1131      C1132   1.377       .  A
C1131     Br1138   1.923       .  S
C1132      C1133   1.388       .  A
C1132      H1137   1.084       .  S
C1133      C1134   1.398       .  A
C1134     Br1135   1.923       .  S
C1139      C1140   1.436       .  A
C1139      C1144   1.445       .  A
C1139      H1146   1.082       .  S
C1140      C1141   1.418       .  A
C1141      C1142   1.440       .  A
C1141     Br1148   1.909       .  S
C1142      C1143   1.433       .  A
C1142      H1147   1.082       .  S
C1143      C1144   1.420       .  A
C1144     Br1145   1.915       .  S
C1149      C1150   1.436       .  A
C1149      C1154   1.445       .  A
C1149      H1156   1.082       .  S
C1150      C1151   1.419       .  A
C1151      C1152   1.453       .  A
C1151     Br1158   1.916       .  S
C1152      C1153   1.439       .  A
C1152      H1157   1.082       .  S
C1153      C1154   1.417       .  A
C1154     Br1155   1.919       .  S
C1159      C1160   1.402       .  A
C1159      C1164   1.398       .  A
C1159      H1166   1.083       .  S
C1160      C1161   1.413       .  A
C1161      C1162   1.390       .  A
C1161     Br1168   1.924       .  S
C1162      C1163   1.400       .  A
C1162      H1167   1.085       .  S
C1163      C1164   1.403       .  A
C1164     Br1165   1.910       .  S
C1169      C1170   1.409       .  A
C1169      C1174   1.392       .  A
C1169      H1176   1.078       .  S
C1170      C1171   1.413       .  A
C1171      C1172   1.399       .  A
C1171     Br1178   1.920       .  S
C1172      C1173   1.402       .  A
C1172      H1177   1.084       .  S
C1173      C1174   1.395       .  A
C1174     Br1175   1.909       .  S
C1179      C1180   1.399       .  A
C1179      C1184   1.387       .  A
C1179      H1186   1.083       .  S
C1180      C1181   1.387       .  A
C1181      C1182   1.379       .  A
C1181     Br1188   1.923       .  S
C1182      C1183   1.412       .  A
C1182      H1187   1.080       .  S
C1183      C1184   1.399       .  A
C1184     Br1185   1.908       .  S
C1189      C1190   1.413       .  A
C1189      C1194   1.439       .  A
C1189      H1196   1.082       .  S
C1190      C1191   1.449       .  A
C1191      C1192   1.428       .  A
C1191     Br1198   1.930       .  S
C1192      C1193   1.398       .  A
C1192      H1197   1.074       .  S
C1193      C1194   1.435       .  A
C1194     Br1195   1.920       .  S
C1199      C1200   1.429       .  A
C1199      C1204   1.425       .  A
C1199      H1206   1.083       .  S
C1200      C1201   1.418       .  A
C1201      C1202   1.445       .  A
C1201     Br1208   1.911       .  S
C1202      C1203   1.435       .  A
C1202      H1207   1.083       .  S
C1203      C1204   1.415       .  A
C1204     Br1205   1.909       .  S
C1209      C1210   1.411       .  A
C1209      C1214   1.404   1_565  A
C1209      H1216   1.084       .  S
C1210      C1211   1.397       .  A
C1211      C1212   1.394       .  A
C1211     Br1218   1.916       .  S
C1212      C1213   1.412   1_565  A
C1212      H1217   1.084   1_565  S
C1213      C1214   1.408       .  A
C1214     Br1215   1.917       .  S
C1219      C1220   1.403       .  A
C1219      C1224   1.381       .  A
C1219      H1226   1.084       .  S
C1220      C1221   1.399       .  A
C1221      C1222   1.395       .  A
C1221     Br1228   1.920       .  S
C1222      C1223   1.407       .  A
C1222      H1227   1.083       .  S
C1223      C1224   1.404       .  A
C1224     Br1225   1.924       .  S
C1229      C1230   1.410       .  A
C1229      C1234   1.399       .  A
C1229      H1236   1.084   1_565  S
C1230      C1231   1.397       .  A
C1231      C1232   1.374       .  A
C1231     Br1238   1.896       .  S
C1232      C1233   1.392       .  A
C1232      H1237   1.070       .  S
C1233      C1234   1.402       .  A
C1234     Br1235   1.918       .  S
C1239      C1240   1.387       .  A
C1239      C1244   1.380       .  A
C1239      H1246   1.082       .  S
C1240      C1241   1.393       .  A
C1241      C1242   1.389       .  A
C1241     Br1248   1.911       .  S
C1242      C1243   1.409       .  A
C1242      H1247   1.083       .  S
C1243      C1244   1.426       .  A
C1244     Br1245   1.933       .  S
