geometry optimzed in LAMMPS
_audit_creation_date              2020-11-30 
_audit_creation_method            'lammps2cif' 
_symmetry_space_group_name_H-M    'P1' 
_symmetry_Int_Tables_number       1 
_symmetry_cell_setting            triclinic 
loop_ 
_symmetry_equiv_pos_as_xyz 
  x,y,z 
_cell_length_a                    23.65051066 
_cell_length_b                    25.03566506260288 
_cell_length_c                    26.71516879522708 
_cell_angle_alpha                 89.6947486194539 
_cell_angle_beta                  87.50551504757104 
_cell_angle_gamma                 87.92441582128755 
loop_ 
_atom_site_label 
_atom_site_type_symbol 
_atom_site_fract_x 
_atom_site_fract_y 
_atom_site_fract_z 
_atom_site_charge 
O1          O  0.44844525  0.09548731  0.43753471    -0.75700
O2          O  0.50230320  0.12195094  0.56799604    -0.75700
O3          O  0.54523598  0.12680434  0.47137735    -0.75800
O4          O  0.40250524  0.09060905  0.53233662    -0.75800
O5          O  0.43017501  0.00452198  0.53081019    -0.75800
O6          O  0.57639841  0.04294806  0.48416676    -0.75700
O7          O  0.52218822  0.03445506  0.57444664    -0.75700
O8          O  0.48450338  0.01253132  0.44241852    -0.75800
Ni9        Ni  0.47322962  0.11234356  0.50251618     1.25400
Ni10       Ni  0.50438495  0.02084829  0.50840364     1.25400
C11         C  0.45967215  0.04918637  0.41849861     0.86500
C12         C  0.52234604  0.08155837  0.59208737     0.86400
C13         C  0.58013137  0.08773693  0.46136197     0.86500
C14         C  0.39328811  0.04132052  0.54190572     0.86600
O15         O  0.12057152  0.57823369  0.48870009    -0.75700
O16         O  0.14905474  0.43625338  0.53847999    -0.75700
O17         O  0.15059965  0.48226848  0.44547401    -0.75800
O18         O  0.11584757  0.53153238  0.58172693    -0.75800
O19         O  0.02660970  0.50854519  0.57420595    -0.75800
O20         O  0.05760766  0.47706533  0.43877533    -0.75700
O21         O  0.05934453  0.42071541  0.52327252    -0.75700
O22         O  0.02791606  0.56500875  0.48860814    -0.75800
Ni23       Ni  0.13781636  0.50804861  0.51421850     1.25400
Ni24       Ni  0.04001135  0.49218497  0.50620437     1.25400
C25         C  0.07052010  0.59249533  0.47595256     0.86500
C26         C  0.10774801  0.40480883  0.53832888     0.86400
C27         C  0.10768154  0.47133945  0.41981592     0.86500
C28         C  0.06460789  0.52808784  0.59973946     0.86600
O29         O  0.46654948  0.81846601  0.47984749    -0.75700
O30         O  0.60760369  0.85322680  0.53790617    -0.75700
O31         O  0.50543965  0.82643302  0.57497611    -0.75800
O32         O  0.56855437  0.84225152  0.44128579    -0.75800
O33         O  0.53419342  0.92578592  0.44421026    -0.75800
O34         O  0.48716937  0.91444778  0.57890926    -0.75700
O35         O  0.58241398  0.93958186  0.53190802    -0.75700
O36         O  0.43783293  0.90349794  0.49077171    -0.75800
Ni37       Ni  0.53854957  0.83146561  0.50861525     1.25400
Ni38       Ni  0.50971831  0.92361168  0.51144491     1.25400
C39         C  0.43081843  0.85739157  0.47256428     0.86500
C40         C  0.61532832  0.90265234  0.54782499     0.86400
C41         C  0.48531723  0.86797042  0.59836228     0.86500
C42         C  0.55740918  0.88700456  0.41993247     0.86600
O43         O  0.94547383  0.49508026  0.44258476    -0.75700
O44         O  0.93706573  0.44887788  0.57612014    -0.75700
O45         O  0.95876795  0.40194049  0.48713450    -0.75800
O46         O  0.92386185  0.54294959  0.53098689    -0.75800
O47         O  0.83175651  0.52677239  0.53494539    -0.75800
O48         O  0.86722720  0.39020939  0.47565351    -0.75700
O49         O  0.84805885  0.42432206  0.57002173    -0.75700
O50         O  0.85190800  0.48846814  0.43974672    -0.75800
Ni51       Ni  0.94429227  0.47280584  0.50971762     1.25400
Ni52       Ni  0.84573942  0.45726133  0.50517139     1.25400
C53         C  0.90003021  0.50010663  0.41917349     0.86500
C54         C  0.89493887  0.42255611  0.59215207     0.86400
C55         C  0.91954488  0.37684690  0.46741747     0.86500
C56         C  0.87290930  0.55711540  0.54326092     0.86600
O57         O  0.37336424  0.43704509  0.12275337    -0.75700
O58         O  0.50888953  0.51306820  0.14277170    -0.75700
O59         O  0.39879580  0.53986826  0.13186763    -0.75800
O60         O  0.48453181  0.40728372  0.13476623    -0.75800
O61         O  0.48493195  0.40710288  0.05150918    -0.75800
O62         O  0.42664939  0.54695740  0.05147101    -0.75700
O63         O  0.52835275  0.50345334  0.06106871    -0.75700
O64         O  0.38362234  0.45187515  0.04073140    -0.75800
Ni65       Ni  0.44074528  0.47384304  0.13692411     1.25400
Ni66       Ni  0.45657271  0.47748695  0.04859705     1.25400
C67         C  0.35684638  0.43153041  0.07774041     0.86500
C68         C  0.53916846  0.52327410  0.10309927     0.86400
C69         C  0.39771066  0.56368114  0.08946320     0.86500
C70         C  0.49999507  0.38633402  0.09235583     0.86600
O71         O  0.46806669  0.42691445  0.87541713    -0.75700
O72         O  0.48861802  0.57830752  0.88477565    -0.75700
O73         O  0.55702975  0.48873262  0.88329197    -0.78200
O74         O  0.39748022  0.51454252  0.87470709    -0.75800
O75         O  0.38804609  0.50352752  0.95726817    -0.75800
O76         O  0.54734694  0.49282320  0.96640491    -0.75700
O77         O  0.46959019  0.57368972  0.96687700    -0.75700
O78         O  0.46651899  0.42473072  0.95872786    -0.75800
Ni79       Ni  0.47794085  0.50285349  0.87599635     1.25400
Ni80       Ni  0.46728417  0.49883026  0.96496449     1.25400
C81         C  0.46504474  0.40110894  0.91703105     0.86500
C82         C  0.48679275  0.59943079  0.92871936     0.86400
C83         C  0.57653112  0.48053584  0.92675587     0.86500
C84         C  0.36635208  0.51227297  0.91509265     0.86600
O85         O  0.05276773  0.55422588  0.02346688    -0.75700
O86         O  0.90818703  0.51813927  0.98233084    -0.75700
O87         O  0.00343060  0.54327794  0.93532957    -0.75800
O88         O  0.95640902  0.53193375  0.07002845    -0.75800
O89         O  0.92204434  0.61546670  0.07295454    -0.75800
O90         O  0.98516161  0.63129275  0.93926667    -0.75700
O91         O  0.88299661  0.60449401  0.97633220    -0.75700
O92         O  0.02404796  0.63925621  0.03439633    -0.75800
Ni93       Ni  0.98088255  0.53411081  0.00279366     1.25400
Ni94       Ni  0.95204924  0.62625613  0.00562609     1.25400
C95         C  0.05978053  0.60033128  0.04167726     0.86500
C96         C  0.87527332  0.55506839  0.96641230     0.86400
C97         C  0.00528610  0.58975664  0.91587982     0.86500
C98         C  0.93319456  0.57071457  0.09430754     0.86600
O99         O  0.54513382  0.96262444  0.07164854    -0.75700
O100        O  0.55355272  0.00882840  0.93811299    -0.75700
O101        O  0.56675317  0.91475517  0.98324800    -0.75800
O102        O  0.53184285  0.05576349  0.02710034    -0.75800
O103        O  0.62338226  0.06749435  0.03858663    -0.75800
O104        O  0.65885845  0.93093316  0.97929117    -0.75700
O105        O  0.64255817  0.03338588  0.94421687    -0.75700
O106        O  0.63869943  0.96923608  0.07449008    -0.75800
Ni107      Ni  0.54632085  0.98489897  0.00451573     1.25400
Ni108      Ni  0.64487292  0.00044390  0.00906659     1.25400
C109        C  0.59057573  0.95760084  0.09506254     0.86500
C110        C  0.59568016  0.03515113  0.92208338     0.86400
C111        C  0.61770628  0.90058920  0.97097572     0.86500
C112        C  0.57106401  0.08085516  0.04682205     0.86600
O113        O  0.04215354  0.36223321  0.07670337    -0.75700
O114        O  0.98830572  0.33577445  0.94623811    -0.75700
O115        O  0.08809817  0.36711699  0.98190332    -0.75800
O116        O  0.94536746  0.33091369  0.04285595    -0.75800
O117        O  0.91420347  0.41477058  0.03007372    -0.75800
O118        O  0.06042319  0.45320291  0.98342501    -0.75700
O119        O  0.96841000  0.42326904  0.93979213    -0.75700
O120        O  0.00609831  0.44519002  0.07181842    -0.75800
Ni121      Ni  0.01737392  0.34537916  0.01171999     1.25400
Ni122      Ni  0.98621477  0.43687400  0.00583433     1.25400
C123        C  0.03092651  0.40853407  0.09573928     0.86500
C124        C  0.96826068  0.37616691  0.92214801     0.86400
C125        C  0.09731222  0.41640539  0.97233162     0.86500
C126        C  0.91047531  0.36998144  0.05287886     0.86600
O127        O  0.37003290  0.87948596  0.02555885    -0.75700
O128        O  0.34155098  0.02146664  0.97577587    -0.75700
O129        O  0.37475934  0.92618750  0.93253292    -0.75800
O130        O  0.34000329  0.97544925  0.06878469    -0.75800
O131        O  0.43299491  0.98065489  0.07548520    -0.75800
O132        O  0.46399719  0.94917389  0.94005601    -0.75700
O133        O  0.43126040  0.03700530  0.99098466    -0.75700
O134        O  0.46268820  0.89271201  0.02565341    -0.75800
Ni135      Ni  0.35278858  0.94967120  0.00004024     1.25400
Ni136      Ni  0.45059311  0.96553558  0.00805647     1.25400
C137        C  0.42008447  0.86522302  0.03830496     0.86500
C138        C  0.38285938  0.05290985  0.97592105     0.86400
C139        C  0.42599956  0.92963159  0.91452178     0.86500
C140        C  0.38292048  0.98637647  0.09444448     0.86600
O141        O  0.02255693  0.03080086  0.63882445    -0.75700
O142        O  0.00200303  0.87940788  0.62946302    -0.75700
O143        O  0.09314356  0.94317275  0.63953362    -0.75800
O144        O  0.93359407  0.96898374  0.63094940    -0.75800
O145        O  0.94327666  0.96489268  0.54783654    -0.75800
O146        O  0.10257832  0.95419260  0.55697324    -0.75700
O147        O  0.02103643  0.88402780  0.54736300    -0.75700
O148        O  0.02410218  0.03298602  0.55551377    -0.75800
Ni149      Ni  0.01268263  0.95486177  0.63824443     1.25400
Ni150      Ni  0.02333995  0.95888713  0.54927665     1.25400
C151        C  0.02557508  0.05660731  0.59721081     0.86500
C152        C  0.00382835  0.85828675  0.58551831     0.86400
C153        C  0.12427245  0.94544719  0.59914871     0.86500
C154        C  0.91409233  0.97718010  0.58748564     0.86600
O155        O  0.11725204  0.02067369  0.39148942    -0.75700
O156        O  0.98171937  0.94466358  0.37146697    -0.75700
O157        O  0.00608694  0.05044571  0.37947605    -0.75800
O158        O  0.09181106  0.91785319  0.38237450    -0.75800
O159        O  0.06395714  0.91076761  0.46277101    -0.75800
O160        O  0.00568350  0.05062446  0.46273322    -0.75700
O161        O  0.96225579  0.95427608  0.45317010    -0.75700
O162        O  0.10699004  0.00584739  0.47351167    -0.75800
Ni163      Ni  0.04986753  0.98388227  0.37731754     1.25400
Ni164      Ni  0.03403786  0.98023898  0.46564443     1.25400
C165        C  0.13376800  0.02619029  0.43650267     0.86500
C166        C  0.95143905  0.93445764  0.41113844     0.86400
C167        C  0.99062264  0.07139491  0.42188660     0.86500
C168        C  0.09289589  0.89404210  0.42477990     0.86600
C169        C  0.68688280  0.89189546  0.66521295     0.79000
N170        N  0.66998872  0.87925074  0.61929090    -0.79300
C171        C  0.65332281  0.91759260  0.58689273     0.81400
N172        N  0.65343617  0.96989176  0.60071385    -0.79300
C173        C  0.66808816  0.98611439  0.64690349     0.81500
N174        N  0.68453137  0.94578383  0.67995642    -0.81000
C175        C  0.63197613  0.13828003  0.66063147     0.79000
N176        N  0.57965959  0.13527516  0.64267995    -0.79300
C177        C  0.55697679  0.08759766  0.63509506     0.81400
N178        N  0.58506220  0.04229615  0.64875995    -0.79300
C179        C  0.63951205  0.04096594  0.66173721     0.81500
N180        N  0.66451398  0.09051810  0.66694025    -0.81000
C181        C  0.80982761  0.63372570  0.64596361     0.79000
N182        N  0.85951823  0.64011687  0.67203432    -0.79300
C183        C  0.91233506  0.63381056  0.64696061     0.81400
N184        N  0.91220463  0.61814187  0.59852325    -0.79300
C185        C  0.86500467  0.60330499  0.57626631     0.81500
N186        N  0.81393019  0.61272525  0.59944472    -0.81000
C187        C  0.06680613  0.63278027  0.68901645     0.79000
N188        N  0.01009969  0.65126931  0.68706426    -0.79300
C189        C  0.96961165  0.61731699  0.66967465     0.81400
N190        N  0.98945730  0.56960382  0.65053540    -0.79300
C191        C  0.04534030  0.55582816  0.64565265     0.81500
N192        N  0.08275490  0.58633320  0.66675207    -0.81000
C193        C  0.61016730  0.66964978  0.90876832     0.79000
N194        N  0.62853461  0.67028873  0.95790724    -0.79300
C195        C  0.59002730  0.66339789  0.99821008     0.81400
N196        N  0.53630437  0.65159631  0.98651148    -0.79300
C197        C  0.52037096  0.64561866  0.93848992     0.81500
N198        N  0.55662134  0.65757867  0.90068056    -0.81000
C199        C  0.61193532  0.64267505  0.14042895     0.79000
N200        N  0.59078115  0.59303610  0.14294474    -0.79300
C201        C  0.57860441  0.56673954  0.10116283     0.81400
N202        N  0.58747811  0.59006305  0.05592513    -0.79300
C203        C  0.60526999  0.64047686  0.04996485     0.81500
N204        N  0.61706649  0.66820158  0.09345683    -0.81000
C205        C  0.85190024  0.60751649  0.35183276     0.79000
N206        N  0.85317159  0.55559036  0.36361001    -0.79300
C207        C  0.90222361  0.52980011  0.37274791     0.81400
N208        N  0.95202100  0.55292070  0.36056924    -0.79300
C209        C  0.95431309  0.60500496  0.34705265     0.81500
N210        N  0.90288473  0.63384214  0.34595814    -0.81000
C211        C  0.11220498  0.62802000  0.35373828     0.79000
N212        N  0.06015887  0.62482413  0.33139844    -0.79300
C213        C  0.00983704  0.62876215  0.36093399     0.81400
N214        N  0.01420293  0.63050654  0.41142416    -0.79300
C215        C  0.06491574  0.62845060  0.43322054     0.81500
N216        N  0.11249678  0.63062570  0.40404479    -0.81000
C217        C  0.64200035  0.88377421  0.30339131     0.79000
N218        N  0.60773782  0.86491914  0.34072117    -0.79300
C219        C  0.57545384  0.89956245  0.36887236     0.81400
N220        N  0.57524916  0.95223001  0.35825633    -0.79300
C221        C  0.61310938  0.97400419  0.32601609     0.81500
N222        N  0.64897956  0.93895003  0.29898882    -0.81000
C223        C  0.61892989  0.12691918  0.33300841     0.79000
N224        N  0.62434498  0.07596057  0.31199773    -0.79300
C225        C  0.62500135  0.03090222  0.34171566     0.81400
N226        N  0.61966303  0.03832713  0.39185402    -0.79300
C227        C  0.61068623  0.08698305  0.41292173     0.81500
N228        N  0.60996005  0.13100937  0.38337013    -0.81000
C229        C  0.89101553  0.29356139  0.65484636     0.79000
N230        N  0.94839061  0.28042935  0.65060168    -0.79300
C231        C  0.98575344  0.31825002  0.63638558     0.81400
N232        N  0.96496251  0.36765325  0.62685762    -0.79300
C233        C  0.90894759  0.37995678  0.62670613     0.81500
N234        N  0.87128631  0.34259054  0.64047603    -0.81000
C235        C  0.14398980  0.30129444  0.62967816     0.79000
N236        N  0.15391202  0.33568158  0.59081155    -0.79300
C237        C  0.10955161  0.35264472  0.56298914     0.81400
N238        N  0.05728878  0.33461206  0.57375992    -0.79300
C239        C  0.04484716  0.30764251  0.61603906     0.81500
N240        N  0.08853485  0.29312340  0.64489203    -0.81000
C241        C  0.36307128  0.81572570  0.64524248     0.79000
N242        N  0.41996124  0.81557570  0.64213344    -0.79300
C243        C  0.44699510  0.86215471  0.64149491     0.81400
N244        N  0.41803867  0.90816479  0.65477800    -0.79300
C245        C  0.36085536  0.91109994  0.65760251     0.81500
N246        N  0.33341634  0.86433488  0.65016107    -0.81000
C247        C  0.31874307  0.05921304  0.65628371     0.79000
N248        N  0.32590662  0.00771567  0.67536883    -0.79300
C249        C  0.33629414  0.96513159  0.64273825     0.81400
N250        N  0.34729559  0.97668588  0.59376631    -0.79300
C251        C  0.34683723  0.02764215  0.57640636     0.81500
N252        N  0.32860097  0.06762341  0.60701551    -0.81000
C253        C  0.65636790  0.36156805  0.89426804     0.79000
N254        N  0.66139172  0.33885824  0.94162045    -0.79300
C255        C  0.65016471  0.36881274  0.98449899     0.81400
N256        N  0.63099491  0.42020348  0.97793120    -0.79300
C257        C  0.62351472  0.44194366  0.93165738     0.81500
N258        N  0.63712107  0.41252168  0.89034255    -0.81000
C259        C  0.63406158  0.33084779  0.12362746     0.79000
N260        N  0.66171290  0.33794581  0.07689428    -0.79300
C261        C  0.63025894  0.34420668  0.03439041     0.81400
N262        N  0.57342098  0.34717727  0.04123968    -0.79300
C263        C  0.54702021  0.34778631  0.08730264     0.81500
N264        N  0.57721914  0.33752635  0.12797221    -0.81000
C265        C  0.27099935  0.60977174  0.88015547     0.79000
N266        N  0.26310767  0.63122651  0.92789309    -0.79300
C267        C  0.26813293  0.59940589  0.96951986     0.81400
N268        N  0.28728657  0.54829594  0.96153391    -0.79300
C269        C  0.30741147  0.53154573  0.91565214     0.81500
N270        N  0.29388875  0.56014708  0.87472661    -0.81000
C271        C  0.26795227  0.64175792  0.10652309     0.79000
N272        N  0.24918215  0.64122744  0.05774264    -0.79300
C273        C  0.28459902  0.62045201  0.01970101     0.81400
N274        N  0.33678294  0.60312795  0.03170434    -0.79300
C275        C  0.35371277  0.60194009  0.07921309     0.81500
N276        N  0.31903312  0.62025367  0.11659280    -0.81000
C277        C  0.37537702  0.81246407  0.35634066     0.79000
N278        N  0.38908228  0.80990044  0.40503046    -0.79300
C279        C  0.39002267  0.85475982  0.43280232     0.81400
N280        N  0.37433768  0.90239546  0.41215974    -0.79300
C281        C  0.36405777  0.90888345  0.36278283     0.81500
N282        N  0.36623996  0.86269877  0.33396833    -0.81000
C283        C  0.35890953  0.05922095  0.32619442     0.79000
N284        N  0.34270121  0.00565222  0.32482160    -0.79300
C285        C  0.37862308  0.96563114  0.34432840     0.81400
N286        N  0.42507755  0.98208545  0.36687520    -0.79300
C287        C  0.43597562  0.03415001  0.37256945     0.81500
N288        N  0.40462790  0.07154408  0.35050845    -0.81000
C289        C  0.89685376  0.33649361  0.34393769     0.79000
N290        N  0.94890723  0.34931850  0.32116586    -0.79300
C291        C  0.99485984  0.35678589  0.35097722     0.81400
N292        N  0.98607294  0.35472368  0.40127204    -0.79300
C293        C  0.93476452  0.34567694  0.42313450     0.81500
N294        N  0.89167326  0.33438189  0.39426967    -0.81000
C295        C  0.15247898  0.36839109  0.32986980     0.79000
N296        N  0.09826967  0.34991029  0.32579858    -0.79300
C297        C  0.05078213  0.38117843  0.33543165     0.81400
N298        N  0.05911285  0.42900252  0.35641162    -0.79300
C299        C  0.11098738  0.44351577  0.37124833     0.81500
N300        N  0.15848003  0.41394653  0.35646415    -0.81000
C301        C  0.38555795  0.29182476  0.88122901     0.79000
N302        N  0.35856694  0.28273884  0.92779779    -0.79300
C303        C  0.38169412  0.30041178  0.97125897     0.81400
N304        N  0.42773518  0.33051178  0.96552242    -0.79300
C305        C  0.44851688  0.34611053  0.91977133     0.81500
N306        N  0.42896682  0.32500121  0.87800785    -0.81000
C307        C  0.33305453  0.31017405  0.10928106     0.79000
N308        N  0.35451998  0.28669561  0.06485896    -0.79300
C309        C  0.34741485  0.31334995  0.01961402     0.81400
N310        N  0.32863382  0.36535914  0.02227367    -0.79300
C311        C  0.31740214  0.38991438  0.06714828     0.81500
N312        N  0.30893343  0.35945317  0.10783080    -0.81000
C313        C  0.13168376  0.39849619  0.18804612     0.79000
N314        N  0.08596401  0.38617477  0.16373311    -0.79300
C315        C  0.05461975  0.42356976  0.14166966     0.81400
N316        N  0.06552147  0.47563362  0.14736174    -0.79300
C317        C  0.11197674  0.49208582  0.16990811     0.81500
N318        N  0.14789616  0.45206373  0.18941620    -0.81000
C319        C  0.11522208  0.64525161  0.15790398     0.79000
N320        N  0.12436053  0.59501561  0.18027268    -0.79300
C321        C  0.12654349  0.54883329  0.15145553     0.81400
N322        N  0.11626315  0.55532452  0.10207894    -0.79300
C323        C  0.10057642  0.60296145  0.08143954     0.81500
N324        N  0.10151578  0.64781898  0.10921444    -0.81000
C325        C  0.33811801  0.08933041  0.18437302     0.79000
N326        N  0.33211800  0.04376640  0.15779203    -0.79300
C327        C  0.37961142  0.01419571  0.14301371     0.81400
N328        N  0.43148501  0.02871195  0.15785028    -0.79300
C329        C  0.43981541  0.07654397  0.17881469     0.81500
N330        N  0.39232716  0.10781541  0.18843728    -0.81000
C331        C  0.59374813  0.12122238  0.17030425     0.79000
N332        N  0.54169188  0.10840514  0.19307615    -0.79300
C333        C  0.49574088  0.10092990  0.16326430     0.81400
N334        N  0.50453225  0.10297683  0.11296902    -0.79300
C335        C  0.55584186  0.11202167  0.09110715     0.81500
N336        N  0.59893172  0.12332186  0.11997194    -0.81000
C337        C  0.34662291  0.15641342  0.88455111     0.79000
N338        N  0.40207808  0.16457540  0.86932953    -0.79300
C339        C  0.44576841  0.15005178  0.89817856     0.81400
N340        N  0.43332893  0.12308549  0.94046000    -0.79300
C341        C  0.38106327  0.10506561  0.95124253     0.81500
N342        N  0.33670064  0.12203258  0.92342368    -0.81000
C343        C  0.59960214  0.16414562  0.85938616     0.79000
N344        N  0.54222519  0.17727187  0.86362211    -0.79300
C345        C  0.50486355  0.13944755  0.87783210     0.81400
N346        N  0.52565826  0.09004637  0.88736400    -0.79300
C347        C  0.58167406  0.07774859  0.88752547     0.81500
N348        N  0.61933368  0.11511857  0.87376078    -0.81000
C349        C  0.37840079  0.82968467  0.16051213     0.79000
N350        N  0.43044669  0.83288689  0.18285191    -0.79300
C351        C  0.48076894  0.82895123  0.15331617     0.81400
N352        N  0.47640296  0.82720408  0.10282641    -0.79300
C353        C  0.42569032  0.82925874  0.08103015     0.81500
N354        N  0.37810956  0.82707766  0.11020560    -0.81000
C355        C  0.63870563  0.85020392  0.16241208     0.79000
N356        N  0.63743217  0.90212975  0.15063508    -0.79300
C357        C  0.58837972  0.92791653  0.14149315     0.81400
N358        N  0.53858281  0.90479554  0.15367357    -0.79300
C359        C  0.53629255  0.85271219  0.16719460     0.81500
N360        N  0.58772216  0.82387674  0.16828837    -0.81000
C361        C  0.87169461  0.33079910  0.18123942     0.79000
N362        N  0.88066349  0.32670983  0.13087742    -0.79300
C363        C  0.87993613  0.37073663  0.10132663     0.81400
N364        N  0.87096512  0.41939238  0.12239574    -0.79300
C365        C  0.86562836  0.42681662  0.17253423     0.81500
N366        N  0.86628247  0.38175748  0.20225153    -0.81000
C367        C  0.84861472  0.57394605  0.21085196     0.79000
N368        N  0.88287309  0.59280098  0.17351966    -0.79300
C369        C  0.91515955  0.55815875  0.14537018     0.81400
N370        N  0.91537333  0.50549214  0.15599158    -0.79300
C371        C  0.87751604  0.48371625  0.18823379     0.81500
N372        N  0.84164145  0.51876947  0.21525852    -0.81000
C373        C  0.85655295  0.12686918  0.39061374     0.79000
N374        N  0.91339660  0.12019974  0.38627014    -0.79300
C375        C  0.94359622  0.10994180  0.42693996     0.81400
N376        N  0.91719458  0.11054705  0.47300275    -0.79300
C377        C  0.86035638  0.11350930  0.47985134     0.81500
N378        N  0.82890236  0.11976613  0.43734676    -0.81000
C379        C  0.83425265  0.09614623  0.61997520     0.79000
N380        N  0.82922678  0.11885570  0.57262275    -0.79300
C381        C  0.84045336  0.08890162  0.52974362     0.81400
N382        N  0.85962525  0.03751134  0.53631095    -0.79300
C383        C  0.86710728  0.01577127  0.58258471     0.81500
N384        N  0.85350078  0.04519284  0.62390002    -0.81000
C385        C  0.22264710  0.81595138  0.40772399     0.79000
N386        N  0.17156879  0.83746116  0.39765382    -0.79300
C387        C  0.13689368  0.85578375  0.43503274     0.81400
N388        N  0.15382638  0.85460058  0.48254085    -0.79300
C389        C  0.20600797  0.83726906  0.49454417     0.81500
N390        N  0.24141959  0.81648397  0.45650353    -0.81000
C391        C  0.21961589  0.84795283  0.63408878     0.79000
N392        N  0.19673923  0.89758235  0.63951615    -0.79300
C393        C  0.18321570  0.92618144  0.59858961     0.81400
N394        N  0.20333873  0.90942765  0.55270832    -0.79300
C395        C  0.22248017  0.85831380  0.54472404     0.81500
N396        N  0.22749950  0.82649402  0.58635208    -0.81000
C397        C  0.85863741  0.31943906  0.85360879     0.79000
N398        N  0.91095572  0.32244759  0.87155477    -0.79300
C399        C  0.93363608  0.37012629  0.87913734     0.81400
N400        N  0.90554799  0.41542614  0.86547184    -0.79300
C401        C  0.85109669  0.41675297  0.85249912     0.81500
N402        N  0.82609623  0.36719920  0.84730096    -0.81000
C403        C  0.80373237  0.56582319  0.84901673     0.79000
N404        N  0.82062265  0.57846908  0.89493985    -0.79300
C405        C  0.83728271  0.54012781  0.92734119     0.81400
N406        N  0.83716796  0.48782793  0.91352181    -0.79300
C407        C  0.82251970  0.47160433  0.86733122     0.81500
N408        N  0.80608230  0.51193433  0.83427564    -0.81000
C409        C  0.87867398  0.81505566  0.37380461     0.79000
N410        N  0.87354549  0.78952806  0.42077616    -0.79300
C411        C  0.88534026  0.81725259  0.46426855     0.81400
N412        N  0.90312813  0.86766788  0.45830960    -0.79300
C413        C  0.91200110  0.89099289  0.41307254     0.81500
N414        N  0.89982526  0.86469636  0.37128971    -0.81000
C415        C  0.88044891  0.78806824  0.60546271     0.79000
N416        N  0.93399456  0.80013999  0.61355110    -0.79300
C417        C  0.97024404  0.81210424  0.57574259     0.81400
N418        N  0.95430876  0.80613394  0.52772052    -0.79300
C419        C  0.90058636  0.79433033  0.51602168     0.81500
N420        N  0.86208054  0.78743338  0.55632419    -0.81000
C421        C  0.42379989  0.82495082  0.82523028     0.79000
N422        N  0.40785165  0.87139242  0.84750487    -0.79300
C423        C  0.44526722  0.90189306  0.86860803     0.81400
N424        N  0.50115014  0.88811731  0.86372240    -0.79300
C425        C  0.52099524  0.84040947  0.84457013     0.81500
N426        N  0.48050670  0.80646211  0.82717446    -0.81000
C427        C  0.68078167  0.82398948  0.86826617     0.79000
N428        N  0.63108843  0.81760627  0.84219703    -0.79300
C429        C  0.57827391  0.82390805  0.86727566     0.81400
N430        N  0.57840910  0.83956385  0.91571615    -0.79300
C431        C  0.62561073  0.85439855  0.93797138     0.81500
N432        N  0.67668341  0.84498101  0.91478875    -0.81000
O433        O  0.14822024  0.68018524  0.66287094    -0.82200
O434        O  0.35538519  0.79269681  0.76936189    -0.66800
O435        O  0.24637703  0.69866184  0.71702502    -1.13400
C436        C  0.15451255  0.69523056  0.86387620     1.04700
O437        O  0.34238643  0.77754748  0.85137547    -0.80000
O438        O  0.30294672  0.68263807  0.83601555    -0.67600
Ni439      Ni  0.22143472  0.71325918  0.65027442     1.34900
C440        C  0.27059118  0.64443337  0.83507803     0.83500
O441        O  0.34878756  0.73526946  0.68798986    -0.80600
O442        O  0.29108581  0.75205693  0.62792196    -0.90900
C443        C  0.37322777  0.79320806  0.81377663     0.83000
O444        O  0.18766549  0.77509107  0.67823343    -0.69100
O445        O  0.19952642  0.70566976  0.88632521    -0.88400
C446        C  0.22002200  0.81329482  0.67916858     0.83900
C447        C  0.33609979  0.76249618  0.65037106     1.05400
H448        H  0.22739983  0.79477720  0.79643569     0.37200
O449        O  0.24423327  0.75906645  0.79722153    -1.11000
O450        O  0.22870815  0.64583162  0.80555852    -0.67700
Ni451      Ni  0.19239191  0.70934514  0.77137819     1.26300
O452        O  0.26190473  0.81189701  0.70868812    -0.67900
O453        O  0.14182422  0.72245779  0.82625781    -0.80200
C454        C  0.11737933  0.66452358  0.70046974     0.83300
O455        O  0.13522470  0.66503156  0.74488401    -0.67400
Ni456      Ni  0.26917486  0.74447019  0.86397251     1.27400
Ni457      Ni  0.29821888  0.74838290  0.74286862     1.26100
H458        H  0.26321029  0.66295101  0.71781050     0.37800
O459        O  0.73162154  0.61258436  0.70243145    -0.82200
O460        O  0.76843878  0.77148059  0.85683197    -0.66800
O461        O  0.70105664  0.70263493  0.75649573    -1.13400
C462        C  0.84375641  0.78460346  0.65243019     1.04700
O463        O  0.75898281  0.84512968  0.81179131    -0.80000
O464        O  0.75811228  0.86239975  0.71650904    -0.67600
Ni465      Ni  0.67890525  0.63101782  0.75879143     1.34900
C466        C  0.71630157  0.84732235  0.69374524     0.83500
O467        O  0.68796030  0.70390375  0.86224620    -0.80600
O468        O  0.63388335  0.64751180  0.82169271    -0.90900
C469        C  0.74039135  0.81451973  0.84665308     0.83000
O470        O  0.73250735  0.59531681  0.79771450    -0.69100
O471        O  0.85673361  0.81020161  0.69253877    -0.88400
C472        C  0.77431575  0.61039521  0.82048141     0.83900
C473        C  0.64686019  0.67311189  0.86180023     1.05400
H474        H  0.82426352  0.73381559  0.75940440     0.37200
O475        O  0.78955774  0.75507983  0.75773147    -1.11000
O476        O  0.70458398  0.79668076  0.69038395    -0.67700
Ni477      Ni  0.75199652  0.72935140  0.70413625     1.26300
O478        O  0.78603145  0.66103689  0.82384450    -0.67900
O479        O  0.80265521  0.75381274  0.65198220    -0.80200
C480        C  0.75021656  0.64319620  0.66757256     0.83300
O481        O  0.72217276  0.68623767  0.65739517    -0.67400
Ni482      Ni  0.81170729  0.82669688  0.75543686     1.27400
Ni483      Ni  0.73861779  0.72836449  0.81009106     1.26100
H484        H  0.66635090  0.72389920  0.75482266     0.37800
O485        O  0.65291515  0.62639149  0.22018317    -0.82200
O486        O  0.85512056  0.74645651  0.31358956    -0.66800
O487        O  0.71120945  0.69735891  0.28021419    -1.13400
C488        C  0.69694188  0.82488328  0.16524643     1.04700
O489        O  0.83769721  0.83133403  0.29404788    -0.80000
O490        O  0.73253924  0.85768707  0.27742668    -0.67600
Ni491      Ni  0.69861639  0.62168956  0.28043909     1.34900
C492        C  0.68187698  0.84423164  0.27822863     0.83500
O493        O  0.78731130  0.68203555  0.35361754    -0.80600
O494        O  0.75192069  0.60580894  0.33474465    -0.90900
C495        C  0.85648951  0.79557627  0.32461948     0.83000
O496        O  0.75807272  0.60003578  0.23680708    -0.69100
O497        O  0.73868824  0.85191332  0.17948910    -0.88400
C498        C  0.80873547  0.61348930  0.23601055     0.83900
C499        C  0.79366539  0.63283879  0.34899179     1.05400
H500        H  0.80543441  0.74481357  0.20883488     0.37200
O501        O  0.77940079  0.76036323  0.23402068    -1.11000
O502        O  0.66596205  0.79945876  0.25923017    -0.67700
Ni503      Ni  0.70550568  0.73821165  0.22021295     1.26300
O504        O  0.82464917  0.65826276  0.25500904    -0.67900
O505        O  0.70329734  0.77568722  0.16061881    -0.80200
C506        C  0.63412099  0.66215115  0.18961424     0.83300
O507        O  0.63548783  0.71126966  0.20064797    -0.67400
Ni508      Ni  0.79199406  0.83603323  0.23379331     1.27400
Ni509      Ni  0.78510378  0.71951142  0.29402302     1.26100
H510        H  0.68517533  0.71290737  0.30540017     0.37800
O511        O  0.61635718  0.21875213  0.70950166    -0.82200
O512        O  0.79893643  0.24079686  0.85628267    -0.66800
O513        O  0.70795727  0.26494087  0.74934187    -1.13400
C514        C  0.82160007  0.12711157  0.66716956     1.04700
O515        O  0.87426174  0.23896565  0.80474237    -0.80000
O516        O  0.88010333  0.22419612  0.70780348    -0.67600
Ni517      Ni  0.62931456  0.27950818  0.75461440     1.34900
C518        C  0.85316094  0.25675369  0.68116627     0.83500
O519        O  0.71275368  0.30083905  0.84845022    -0.80600
O520        O  0.63814855  0.33396585  0.80790728    -0.90900
C521        C  0.84303618  0.26322023  0.83882453     0.83000
O522        O  0.61051676  0.23352164  0.80644076    -0.69100
O523        O  0.85247510  0.12375158  0.70633537    -0.88400
C524        C  0.63745813  0.20095894  0.83307379     0.83900
C525        C  0.66902103  0.33060306  0.84707432     1.05400
H526        H  0.76767878  0.15964428  0.77743907     0.37200
O527        O  0.78266413  0.19277446  0.76490203    -1.11000
O528        O  0.79853846  0.25921250  0.67956266    -0.67700
Ni529      Ni  0.74282784  0.20900210  0.70804296     1.26300
O530        O  0.69208074  0.19849965  0.83467833    -0.67900
O531        O  0.77786521  0.15687313  0.66579519    -0.80200
C532        C  0.64758115  0.19449676  0.67541892     0.83300
O533        O  0.69168292  0.21691749  0.65796192    -0.67400
Ni534      Ni  0.86130709  0.17820923  0.75962941     1.27400
Ni535      Ni  0.74779212  0.24871203  0.80620148     1.26100
H536        H  0.72294403  0.29807063  0.73680497     0.37800
C537        C  0.17186274  0.39851303  0.85795426     0.79000
N538        N  0.16199935  0.39010196  0.90722166    -0.79300
C539        C  0.14376305  0.43008316  0.93783094     0.81400
N540        N  0.14330744  0.48103957  0.92047215    -0.79300
C541        C  0.15431326  0.49259495  0.87150116     0.81500
N542        N  0.16470228  0.45001136  0.83886981    -0.81000
C543        C  0.12754111  0.64200123  0.86900473     0.79000
N544        N  0.07065127  0.64215232  0.87211927    -0.79300
C545        C  0.04361556  0.59557446  0.87275283     0.81400
N546        N  0.07257045  0.54956453  0.85946703    -0.79300
C547        C  0.12975370  0.54662786  0.85663834     0.81500
N548        N  0.15719484  0.59339181  0.86408004    -0.81000
O549        O  0.14603619  0.33998763  0.79266342    -0.82200
O550        O  0.27728697  0.14633471  0.67215378    -0.66800
O551        O  0.19224149  0.23104685  0.77231815    -1.13400
C552        C  0.36213635  0.27579218  0.83291752     1.04700
O553        O  0.34457724  0.11774103  0.72156917    -0.80000
O554        O  0.30760347  0.14935348  0.80725014    -0.67600
Ni555      Ni  0.13058988  0.27773805  0.75204395     1.34900
C556        C  0.30143001  0.17096872  0.84887991     0.83500
O557        O  0.17112105  0.15609583  0.69662997    -0.80600
O558        O  0.10672407  0.22253555  0.70518179    -0.90900
C559        C  0.31148170  0.10939908  0.68644780     0.83000
O560        O  0.18300083  0.30836748  0.70698139    -0.69100
O561        O  0.38387870  0.23518609  0.80906302    -0.88400
C562        C  0.18917763  0.28674618  0.66535439     0.83900
C563        C  0.12846809  0.18193019  0.68132671     1.05400
H564        H  0.31216262  0.25130649  0.71668678     0.37200
O565        O  0.29836431  0.22667728  0.74192212    -1.11000
O566        O  0.27125964  0.21466007  0.85194221    -0.67700
Ni567      Ni  0.25636808  0.26649353  0.79555732     1.26300
O568        O  0.21934906  0.24305605  0.66229750    -0.67900
O569        O  0.31948306  0.30162650  0.81761491    -0.80200
C570        C  0.17912596  0.34832644  0.82778994     0.83300
O571        O  0.21331505  0.31138723  0.84208800    -0.67400
Ni572      Ni  0.36001779  0.17998752  0.76219426     1.27400
Ni573      Ni  0.23423722  0.19122852  0.71868501     1.26100
H574        H  0.17844125  0.20641835  0.79755337     0.37800
O575        O  0.27841449  0.81788134  0.15767991    -0.82200
O576        O  0.17955818  0.62781657  0.28146297    -0.66800
O577        O  0.21648500  0.76440882  0.23329032    -1.13400
C578        C  0.36825177  0.75979470  0.32994574     1.04700
O579        O  0.21219144  0.63981697  0.35656959    -0.80000
O580        O  0.24992459  0.73251535  0.38114179    -0.67600
Ni581      Ni  0.20434501  0.78347554  0.16439355     1.34900
C582        C  0.24737187  0.78083660  0.36838529     0.83500
O583        O  0.12659347  0.69754373  0.23069415    -0.80600
O584        O  0.13486158  0.74090904  0.15991517    -0.90900
C585        C  0.17103151  0.62935097  0.32841229     0.83000
O586        O  0.24066460  0.72519045  0.13310542    -0.69100
O587        O  0.35573239  0.71680785  0.35434028    -0.88400
C588        C  0.24322391  0.67686982  0.14586276     0.83900
C589        C  0.12234641  0.69791759  0.18430427     1.05400
H590        H  0.29823779  0.66899172  0.26095627     0.37200
O591        O  0.27411548  0.69329656  0.28096025    -1.11000
O592        O  0.25951203  0.79770890  0.32324949    -0.67700
Ni593      Ni  0.29087873  0.76341563  0.25975480     1.26300
O594        O  0.23108914  0.65999733  0.19099965    -0.67900
O595        O  0.36400689  0.76016146  0.28355574    -0.80200
C596        C  0.31957329  0.82835108  0.18583734     0.83300
O597        O  0.31104459  0.82988792  0.23278636    -0.67400
Ni598      Ni  0.28625507  0.67423278  0.34985802     1.27400
Ni599      Ni  0.19972204  0.69428947  0.25449505     1.26100
H600        H  0.19236277  0.78871320  0.25329506     0.37800
O601        O  0.78832045  0.10989831  0.32929911    -0.82200
O602        O  0.64561131  0.28037138  0.19916888    -0.66800
O603        O  0.75984446  0.17915107  0.24436793    -1.13400
C604        C  0.84464552  0.32068118  0.31828139     1.04700
O605        O  0.70229207  0.34781699  0.18494119    -0.80000
O606        O  0.78835469  0.29171162  0.19589875    -0.67600
Ni607      Ni  0.73436334  0.11402952  0.27618003     1.34900
C608        C  0.83880267  0.28629378  0.20349172     0.83500
O609        O  0.66822723  0.17972518  0.18052345    -0.80600
O610        O  0.66890356  0.10876180  0.23037806    -0.90900
C611        C  0.66293243  0.31856512  0.17133239     0.83000
O612        O  0.70226408  0.16601281  0.31834023    -0.69100
O613        O  0.82170064  0.34895758  0.28386481    -0.88400
C614        C  0.65181500  0.17142724  0.31075242     0.83900
C615        C  0.64595789  0.13703645  0.19596020     1.05400
H616        H  0.70512080  0.28658066  0.29819775     0.37200
O617        O  0.73076682  0.27856315  0.26986966    -1.11000
O618        O  0.85205112  0.25420778  0.23882206    -0.67700
Ni619      Ni  0.79219925  0.22897775  0.28930564     1.26300
O620        O  0.63856156  0.20350842  0.27541991    -0.67900
O621        O  0.82237833  0.27799051  0.33371570    -0.80200
C622        C  0.82768059  0.13915030  0.34290786     0.83300
O623        O  0.84500006  0.17734468  0.31507125    -0.67400
Ni624      Ni  0.75624556  0.34368767  0.23806121     1.27400
Ni625      Ni  0.69841097  0.22873708  0.22493279     1.26100
H626        H  0.78549060  0.17113255  0.21604005     0.37800
C627        C  0.15754868  0.14754774  0.40496068     0.79000
N628        N  0.18167429  0.09827041  0.40641061    -0.79300
C629        C  0.17321020  0.06780883  0.44709370     0.81400
N630        N  0.16197927  0.09236416  0.49196850    -0.79300
C631        C  0.14319542  0.14437275  0.49462849     0.81500
N632        N  0.13608504  0.17102570  0.44938353    -0.81000
C633        C  0.10504877  0.16589757  0.63301412     0.79000
N634        N  0.13204145  0.17498346  0.58644578    -0.79300
C635        C  0.10891615  0.15730927  0.54298402     0.81400
N636        N  0.06287675  0.12720740  0.54871986    -0.79300
C637        C  0.04209542  0.11160759  0.59447062     0.81500
N638        N  0.06164176  0.13271924  0.63623436    -0.81000
O639        O  0.12620255  0.21375795  0.34640690    -0.82200
O640        O  0.31493478  0.31318302  0.19855962    -0.66800
O641        O  0.19111215  0.23032705  0.25031692    -1.13400
C642        C  0.33186127  0.10829753  0.30403927     1.04700
O643        O  0.36439074  0.24396006  0.16783431    -0.80000
O644        O  0.30039039  0.17443095  0.18739370    -0.67600
Ni645      Ni  0.12963671  0.26281304  0.29026014     1.34900
C646        C  0.28891131  0.12813537  0.19637543     0.83500
O647        O  0.20638865  0.33052110  0.19373595    -0.80600
O648        O  0.12734514  0.32236775  0.24058471    -0.90900
C649        C  0.33893147  0.28836689  0.16113108     0.83000
O650        O  0.19020076  0.28328823  0.32684621    -0.69100
O651        O  0.36324630  0.13534783  0.27365413    -0.88400
C652        C  0.20168235  0.32958353  0.31786513     0.83900
C653        C  0.15873108  0.34941917  0.21020113     1.05400
H654        H  0.31421887  0.24420853  0.29284709     0.37200
O655        O  0.29948187  0.22739076  0.26392381    -1.11000
O656        O  0.25018394  0.12295399  0.23097498    -0.67700
Ni657      Ni  0.23859822  0.17912871  0.28577785     1.26300
O658        O  0.24041040  0.33476401  0.28326613    -0.67900
O659        O  0.28420512  0.12719743  0.32050623    -0.80200
C660        C  0.15166454  0.16935242  0.35311034     0.83300
O661        O  0.17565899  0.14453595  0.31568109    -0.67400
Ni662      Ni  0.36095551  0.19490384  0.22397967     1.27400
Ni663      Ni  0.25199576  0.27858948  0.22846326     1.26100
H664        H  0.17637598  0.21350897  0.22139333     0.37800
loop_ 
_geom_bond_atom_site_label_1 
_geom_bond_atom_site_label_2 
_geom_bond_distance 
_geom_bond_site_symmetry_2 
_ccdc_geom_bond_type 
O1           Ni9   1.910       .  S
O1           C11   1.283       .  A
O2           Ni9   1.927       .  S
O2           C12   1.283       .  A
O3           Ni9   1.908       .  S
O3           C13   1.278       .  A
O4           Ni9   1.917       .  S
O4           C14   1.283       .  A
O5          Ni10   1.888       .  S
O5           C14   1.273       .  A
O6          Ni10   1.896       .  S
O6           C13   1.277       .  A
O7          Ni10   1.868       .  S
O7           C12   1.272       .  A
O8          Ni10   1.859       .  S
O8           C11   1.258       .  A
Ni9         Ni10   2.387       .  S
C11         C287   1.429       .  S
C12         C177   1.451       .  S
C13         C227   1.454       .  S
C14         C251   1.452       .  S
O15         Ni23   1.918       .  S
O15          C25   1.284       .  A
O16         Ni23   1.921       .  S
O16          C26   1.277       .  A
O17         Ni23   1.957       .  S
O17          C27   1.288       .  A
O18         Ni23   1.943       .  S
O18          C28   1.290       .  A
O19         Ni24   1.875       .  S
O19          C28   1.265       .  A
O20         Ni24   1.869       .  S
O20          C27   1.271       .  A
O21         Ni24   1.889       .  S
O21          C26   1.279       .  A
O22         Ni24   1.895       .  S
O22          C25   1.273       .  A
Ni23        Ni24   2.380       .  S
C25         C215   1.458       .  S
C26         C237   1.460       .  S
C27         C299   1.474       .  S
C28         C191   1.460       .  S
O29         Ni37   1.937       .  S
O29          C39   1.286       .  A
O30         Ni37   1.938       .  S
O30          C40   1.288       .  A
O31         Ni37   1.912       .  S
O31          C41   1.282       .  A
O32         Ni37   1.926       .  S
O32          C42   1.279       .  A
O33         Ni38   1.864       .  S
O33          C42   1.266       .  A
O34         Ni38   1.872       .  S
O34          C41   1.273       .  A
O35         Ni38   1.884       .  S
O35          C40   1.270       .  A
O36         Ni38   1.896       .  S
O36          C39   1.274       .  A
Ni37        Ni38   2.382       .  S
C39         C279   1.469       .  S
C40         C171   1.465       .  S
C41         C243   1.445       .  S
C42         C219   1.448       .  S
O43         Ni51   1.875       .  S
O43          C53   1.269       .  A
O44         Ni51   1.872       .  S
O44          C54   1.272       .  A
O45         Ni51   1.892       .  S
O45          C55   1.273       .  A
O46         Ni51   1.888       .  S
O46          C56   1.273       .  A
O47         Ni52   1.929       .  S
O47          C56   1.284       .  A
O48         Ni52   1.901       .  S
O48          C55   1.280       .  A
O49         Ni52   1.917       .  S
O49          C54   1.278       .  A
O50         Ni52   1.913       .  S
O50          C53   1.285       .  A
Ni51        Ni52   2.385       .  S
C53         C207   1.443       .  S
C54         C233   1.446       .  S
C55         C293   1.446       .  S
C56         C185   1.460       .  S
O57         Ni65   1.922       .  S
O57          C67   1.290       .  A
O58         Ni65   1.930       .  S
O58          C68   1.283       .  A
O59         Ni65   1.904       .  S
O59          C69   1.278       .  A
O60         Ni65   1.930       .  S
O60          C70   1.284       .  A
O61         Ni66   1.865       .  S
O61          C70   1.266       .  A
O62         Ni66   1.855       .  S
O62          C69   1.264       .  A
O63         Ni66   1.883       .  S
O63          C68   1.270       .  A
O64         Ni66   1.883       .  S
O64          C67   1.265       .  A
Ni65        Ni66   2.375       .  S
C67         C311   1.460       .  S
C68         C201   1.458       .  S
C69         C275   1.423       .  S
C70         C263   1.448       .  S
O71         Ni79   1.924       .  S
O71          C81   1.283       .  A
O72         Ni79   1.932       .  S
O72          C82   1.289       .  A
O73         Ni79   1.909       .  S
O73          C83   1.281       .  A
O74         Ni79   1.917       .  S
O74          C84   1.282       .  A
O75         Ni80   1.894       .  S
O75          C84   1.273       .  A
O76         Ni80   1.896       .  S
O76          C83   1.272       .  A
O77         Ni80   1.878       .  S
O77          C82   1.263       .  A
O78         Ni80   1.864       .  S
O78          C81   1.266       .  A
Ni79        Ni80   2.381       .  S
C81         C305   1.446       .  S
C82         C197   1.457       .  S
C83         C257   1.456       .  S
C84         C269   1.458       .  S
O85         Ni93   1.896   1_455  S
O85          C95   1.274       .  A
O86         Ni93   1.884   1_556  S
O86          C96   1.270       .  A
O87         Ni93   1.872   1_456  S
O87          C97   1.273       .  A
O88         Ni93   1.864       .  S
O88          C98   1.266       .  A
O89         Ni94   1.926       .  S
O89          C98   1.279       .  A
O90         Ni94   1.912   1_556  S
O90          C97   1.282   1_655  A
O91         Ni94   1.938   1_556  S
O91          C96   1.288       .  A
O92         Ni94   1.937   1_455  S
O92          C95   1.286       .  A
Ni93        Ni94   2.382       .  S
C95         C323   1.469       .  S
C96         C405   1.465       .  S
C97         C545   1.445       .  S
C98         C369   1.448       .  S
O99        Ni107   1.875       .  S
O99         C109   1.269       .  A
O100       Ni107   1.872   1_546  S
O100        C110   1.272       .  A
O101       Ni107   1.888   1_556  S
O101        C111   1.273       .  A
O102       Ni107   1.892   1_545  S
O102        C112   1.273       .  A
O103       Ni108   1.901       .  S
O103        C112   1.280       .  A
O104       Ni108   1.929   1_566  S
O104        C111   1.284       .  A
O105       Ni108   1.917   1_556  S
O105        C110   1.278       .  A
O106       Ni108   1.913   1_565  S
O106        C109   1.285       .  A
Ni107      Ni108   2.385   1_565  S
C109        C357   1.443       .  S
C110        C347   1.446       .  S
C111        C431   1.460       .  S
C112        C335   1.446       .  S
O113       Ni121   1.910       .  S
O113        C123   1.283       .  A
O114       Ni121   1.927   1_656  S
O114        C124   1.283       .  A
O115       Ni121   1.917   1_556  S
O115        C125   1.283       .  A
O116       Ni121   1.908   1_655  S
O116        C126   1.278       .  A
O117       Ni122   1.896       .  S
O117        C126   1.277       .  A
O118       Ni122   1.888   1_456  S
O118        C125   1.273       .  A
O119       Ni122   1.868   1_556  S
O119        C124   1.272       .  A
O120       Ni122   1.859   1_455  S
O120        C123   1.258       .  A
Ni121      Ni122   2.387   1_455  S
C123        C315   1.429       .  S
C124        C399   1.451       .  S
C125        C539   1.452       .  S
C126        C363   1.454       .  S
O127       Ni135   1.918       .  S
O127        C137   1.284       .  A
O128       Ni135   1.921   1_546  S
O128        C138   1.277       .  A
O129       Ni135   1.943   1_556  S
O129        C139   1.290       .  A
O130       Ni135   1.957       .  S
O130        C140   1.288       .  A
O131       Ni136   1.869       .  S
O131        C140   1.271       .  A
O132       Ni136   1.875   1_556  S
O132        C139   1.265       .  A
O133       Ni136   1.889   1_546  S
O133        C138   1.279       .  A
O134       Ni136   1.895       .  S
O134        C137   1.273       .  A
Ni135      Ni136   2.380       .  S
C137        C353   1.458       .  S
C138        C341   1.460       .  S
C139        C423   1.460       .  S
C140        C327   1.474   1_565  S
O141       Ni149   1.924   1_545  S
O141        C151   1.283       .  A
O142       Ni149   1.932       .  S
O142        C152   1.289       .  A
O143       Ni149   1.917       .  S
O143        C153   1.282       .  A
O144       Ni149   1.909   1_655  S
O144        C154   1.281       .  A
O145       Ni150   1.896   1_655  S
O145        C154   1.272       .  A
O146       Ni150   1.894       .  S
O146        C153   1.273       .  A
O147       Ni150   1.878       .  S
O147        C152   1.263       .  A
O148       Ni150   1.864   1_545  S
O148        C151   1.266       .  A
Ni149      Ni150   2.381       .  S
C151        C637   1.445       .  S
C152        C417   1.457   1_455  S
C153        C393   1.458       .  S
C154        C383   1.456   1_565  S
O155       Ni163   1.922   1_545  S
O155        C165   1.290       .  A
O156       Ni163   1.930   1_655  S
O156        C166   1.283       .  A
O157       Ni163   1.930   1_545  S
O157        C167   1.284   1_455  A
O158       Ni163   1.904       .  S
O158        C168   1.278       .  A
O159       Ni164   1.855       .  S
O159        C168   1.264       .  A
O160       Ni164   1.865   1_545  S
O160        C167   1.266   1_455  A
O161       Ni164   1.883   1_655  S
O161        C166   1.270       .  A
O162       Ni164   1.883   1_545  S
O162        C165   1.266       .  A
Ni163      Ni164   2.375       .  S
C165        C629   1.460       .  S
C166        C413   1.458       .  S
C167        C375   1.448       .  S
C168        C387   1.423       .  S
C169        C466   1.514       .  S
C169        N170   1.349       .  A
C169        N174   1.406       .  A
N170        C171   1.349       .  A
C171        N172   1.362       .  A
N172        C173   1.364       .  A
C173        C179   1.554   1_565  S
C173        N174   1.394       .  A
C175        C532   1.526       .  S
C175        N176   1.351       .  A
C175        N180   1.412       .  A
N176        C177   1.346       .  A
C177        N178   1.350       .  A
N178        C179   1.347       .  A
C179        N180   1.404       .  A
C181        C480   1.511       .  S
C181        N182   1.406       .  A
C181        N186   1.350       .  A
N182        C183   1.396       .  A
C183        C189   1.550       .  S
C183        N184   1.354       .  A
N184        C185   1.352       .  A
C185        N186   1.347       .  A
C187        C454   1.503       .  S
C187        N188   1.406       .  A
C187        N192   1.343       .  A
N188        C189   1.399   1_455  A
C189        N190   1.361       .  A
N190        C191   1.355   1_655  A
C191        N192   1.335       .  A
C193        C473   1.498       .  S
C193        N194   1.401       .  A
C193        N198   1.339       .  A
N194        C195   1.394       .  A
C195        C203   1.546   1_556  S
C195        N196   1.365       .  A
N196        C197   1.363       .  A
C197        N198   1.336       .  A
C199        C506   1.525       .  S
C199        N200   1.357       .  A
C199        N204   1.408       .  A
N200        C201   1.346       .  A
C201        N202   1.351       .  A
N202        C203   1.351       .  A
C203        N204   1.400       .  A
C205        C499   1.500       .  S
C205        N206   1.335       .  A
C205        N210   1.397       .  A
N206        C207   1.338       .  A
C207        N208   1.357       .  A
N208        C209   1.354       .  A
C209        C213   1.522   1_655  S
C209        N210   1.393       .  A
C211        C585   1.522       .  S
C211        N212   1.396       .  A
C211        N216   1.346       .  A
N212        C213   1.400       .  A
C213        N214   1.358       .  A
N214        C215   1.355       .  A
C215        N216   1.343       .  A
C217        C492   1.485       .  S
C217        N218   1.351       .  A
C217        N222   1.401       .  A
N218        C219   1.345       .  A
C219        N220   1.347       .  A
N220        C221   1.343       .  A
C221        C225   1.526   1_565  S
C221        N222   1.382       .  A
C223        C614   1.488       .  S
C223        N224   1.396       .  A
C223        N228   1.357       .  A
N224        C225   1.376       .  A
C225        N226   1.353       .  A
N226        C227   1.351       .  A
C227        N228   1.352       .  A
C229        C518   1.464       .  S
C229        N230   1.385       .  A
C229        N234   1.357       .  A
N230        C231   1.360       .  A
C231        C239   1.493   1_655  S
C231        N232   1.342       .  A
N232        C233   1.349       .  A
C233        N234   1.354       .  A
C235        C562   1.497       .  S
C235        N236   1.363       .  A
C235        N240   1.378       .  A
N236        C237   1.366       .  A
C237        N238   1.350       .  A
N238        C239   1.340       .  A
C239        N240   1.354       .  A
C241        C447   1.501       .  S
C241        N242   1.344       .  A
C241        N246   1.386       .  A
N242        C243   1.350       .  A
C243        N244   1.359       .  A
N244        C245   1.351       .  A
C245        C249   1.511       .  S
C245        N246   1.378       .  A
C247        C559   1.497       .  S
C247        N248   1.391       .  A
C247        N252   1.343       .  A
N248        C249   1.389   1_545  A
C249        N250   1.355       .  A
N250        C251   1.355   1_565  A
C251        N252   1.343       .  A
C253        C525   1.497       .  S
C253        N254   1.392       .  A
C253        N258   1.344       .  A
N254        C255   1.383       .  A
C255        C261   1.528   1_556  S
C255        N256   1.362       .  A
N256        C257   1.364       .  A
C257        N258   1.351       .  A
C259        C611   1.497       .  S
C259        N260   1.397       .  A
C259        N264   1.349       .  A
N260        C261   1.389       .  A
C261        N262   1.348       .  A
N262        C263   1.355       .  A
C263        N264   1.345       .  A
C265        C440   1.481       .  S
C265        N266   1.389       .  A
C265        N270   1.343       .  A
N266        C267   1.371       .  A
C267        C273   1.515   1_556  S
C267        N268   1.357       .  A
N268        C269   1.358       .  A
C269        N270   1.348       .  A
C271        C588   1.462       .  S
C271        N272   1.395       .  A
C271        N276   1.342       .  A
N272        C273   1.380       .  A
C273        N274   1.345       .  A
N274        C275   1.347       .  A
C275        N276   1.337       .  A
C277        C578   1.517       .  S
C277        N278   1.355       .  A
C277        N282   1.403       .  A
N278        C279   1.351       .  A
C279        N280   1.357       .  A
N280        C281   1.360       .  A
C281        C285   1.547       .  S
C281        N282   1.391       .  A
C283        C642   1.496       .  S
C283        N284   1.409       .  A
C283        N288   1.332       .  A
N284        C285   1.403   1_545  A
C285        N286   1.354       .  A
N286        C287   1.349   1_565  A
C287        N288   1.325       .  A
C289        C604   1.504       .  S
C289        N290   1.396       .  A
C289        N294   1.346       .  A
N290        C291   1.394       .  A
C291        C297   1.517   1_655  S
C291        N292   1.352       .  A
N292        C293   1.350       .  A
C293        N294   1.343       .  A
C295        C652   1.513       .  S
C295        N296   1.388       .  A
C295        N300   1.362       .  A
N296        C297   1.362       .  A
C297        N298   1.349       .  A
N298        C299   1.368       .  A
C299        N300   1.367       .  A
C301        C552   1.489       .  S
C301        N302   1.395       .  A
C301        N306   1.343       .  A
N302        C303   1.386       .  A
C303        C309   1.525   1_556  S
C303        N304   1.349       .  A
N304        C305   1.358       .  A
C305        N306   1.344       .  A
C307        C649   1.496       .  S
C307        N308   1.395       .  A
C307        N312   1.341       .  A
N308        C309   1.391       .  A
C309        N310   1.362       .  A
N310        C311   1.362       .  A
C311        N312   1.336       .  A
C313        C653   1.496       .  S
C313        N314   1.332       .  A
C313        N318   1.409       .  A
N314        C315   1.325       .  A
C315        N316   1.349       .  A
N316        C317   1.354       .  A
C317        C321   1.547       .  S
C317        N318   1.403       .  A
C319        C589   1.517       .  S
C319        N320   1.403       .  A
C319        N324   1.355       .  A
N320        C321   1.391       .  A
C321        N322   1.360       .  A
N322        C323   1.357       .  A
C323        N324   1.351       .  A
C325        C646   1.513       .  S
C325        N326   1.362       .  A
C325        N330   1.388       .  A
N326        C327   1.367       .  A
C327        N328   1.368       .  A
N328        C329   1.349       .  A
C329        C333   1.517       .  S
C329        N330   1.362       .  A
C331        C615   1.504       .  S
C331        N332   1.396       .  A
C331        N336   1.346       .  A
N332        C333   1.394       .  A
C333        N334   1.352       .  A
N334        C335   1.350       .  A
C335        N336   1.343       .  A
C337        C556   1.497       .  S
C337        N338   1.378       .  A
C337        N342   1.363       .  A
N338        C339   1.354       .  A
C339        C345   1.493       .  S
C339        N340   1.340       .  A
N340        C341   1.350       .  A
C341        N342   1.366       .  A
C343        C524   1.464       .  S
C343        N344   1.385       .  A
C343        N348   1.357       .  A
N344        C345   1.360       .  A
C345        N346   1.342       .  A
N346        C347   1.349       .  A
C347        N348   1.354       .  A
C349        C596   1.522       .  S
C349        N350   1.396       .  A
C349        N354   1.346       .  A
N350        C351   1.400       .  A
C351        C359   1.522       .  S
C351        N352   1.358       .  A
N352        C353   1.355       .  A
C353        N354   1.343       .  A
C355        C488   1.500       .  S
C355        N356   1.335       .  A
C355        N360   1.397       .  A
N356        C357   1.338       .  A
C357        N358   1.357       .  A
N358        C359   1.354       .  A
C359        N360   1.393       .  A
C361        C608   1.488       .  S
C361        N362   1.357       .  A
C361        N366   1.396       .  A
N362        C363   1.352       .  A
C363        N364   1.351       .  A
N364        C365   1.353       .  A
C365        C371   1.526       .  S
C365        N366   1.376       .  A
C367        C498   1.485       .  S
C367        N368   1.351       .  A
C367        N372   1.401       .  A
N368        C369   1.345       .  A
C369        N370   1.347       .  A
N370        C371   1.343       .  A
C371        N372   1.382       .  A
C373        C622   1.497       .  S
C373        N374   1.349       .  A
C373        N378   1.397       .  A
N374        C375   1.345       .  A
C375        N376   1.355       .  A
N376        C377   1.348       .  A
C377        C381   1.528       .  S
C377        N378   1.389       .  A
C379        C514   1.497       .  S
C379        N380   1.392       .  A
C379        N384   1.344       .  A
N380        C381   1.383       .  A
C381        N382   1.362       .  A
N382        C383   1.364       .  A
C383        N384   1.351       .  A
C385        C582   1.462       .  S
C385        N386   1.342       .  A
C385        N390   1.395       .  A
N386        C387   1.337       .  A
C387        N388   1.347       .  A
N388        C389   1.345       .  A
C389        C395   1.515       .  S
C389        N390   1.380       .  A
C391        C446   1.481       .  S
C391        N392   1.343       .  A
C391        N396   1.389       .  A
N392        C393   1.348       .  A
C393        N394   1.358       .  A
N394        C395   1.357       .  A
C395        N396   1.371       .  A
C397        C521   1.526       .  S
C397        N398   1.351       .  A
C397        N402   1.412       .  A
N398        C399   1.346       .  A
C399        N400   1.350       .  A
N400        C401   1.347       .  A
C401        C407   1.554       .  S
C401        N402   1.404       .  A
C403        C472   1.514       .  S
C403        N404   1.349       .  A
C403        N408   1.406       .  A
N404        C405   1.349       .  A
C405        N406   1.362       .  A
N406        C407   1.364       .  A
C407        N408   1.394       .  A
C409        C495   1.525       .  S
C409        N410   1.408       .  A
C409        N414   1.357       .  A
N410        C411   1.400       .  A
C411        C419   1.546       .  S
C411        N412   1.351       .  A
N412        C413   1.351       .  A
C413        N414   1.346       .  A
C415        C462   1.498       .  S
C415        N416   1.339       .  A
C415        N420   1.401       .  A
N416        C417   1.336       .  A
C417        N418   1.363       .  A
N418        C419   1.365       .  A
C419        N420   1.394       .  A
C421        C443   1.503       .  S
C421        N422   1.343       .  A
C421        N426   1.406       .  A
N422        C423   1.335       .  A
C423        N424   1.355       .  A
N424        C425   1.361       .  A
C425        C429   1.550       .  S
C425        N426   1.399       .  A
C427        C469   1.511       .  S
C427        N428   1.406       .  A
C427        N432   1.350       .  A
N428        C429   1.396       .  A
C429        N430   1.354       .  A
N430        C431   1.352       .  A
C431        N432   1.347       .  A
O433       Ni439   1.961       .  S
O433        C454   1.284       .  A
O434       Ni457   1.939       .  S
O434        C443   1.277       .  A
O435       Ni439   1.931       .  S
O435       Ni457   1.929       .  S
O435       Ni451   1.905       .  S
O435        H458   0.966       .  S
C436        O453   1.253       .  A
C436        O445   1.280       .  A
C436        C543   1.501       .  S
O437       Ni456   1.961       .  S
O437        C443   1.284       .  A
O438       Ni456   1.861       .  S
O438        C440   1.247       .  A
Ni439       O442   2.009       .  S
Ni439       O444   1.861       .  S
C440        O450   1.292       .  A
O441       Ni457   1.874       .  S
O441        C447   1.253       .  A
O442        C447   1.280       .  A
O444        C446   1.247       .  A
O445       Ni456   2.009       .  S
C446        O452   1.292       .  A
H448        O449   0.966       .  S
O449       Ni457   1.905       .  S
O449       Ni451   1.929       .  S
O449       Ni456   1.931       .  S
O450       Ni451   2.013       .  S
Ni451       O455   1.939       .  S
Ni451       O453   1.874       .  S
O452       Ni457   2.013       .  S
C454        O455   1.277       .  A
O459       Ni465   1.959       .  S
O459        C480   1.276       .  A
O460       Ni483   1.835       .  S
O460        C469   1.279       .  A
O461       Ni465   1.886       .  S
O461       Ni483   1.848       .  S
O461       Ni477   1.938       .  S
O461        H484   0.965       .  S
C462        O479   1.263       .  A
C462        O471   1.305       .  A
O463       Ni482   1.959       .  S
O463        C469   1.276       .  A
O464       Ni482   1.873       .  S
O464        C466   1.254       .  A
Ni465       O468   1.987       .  S
Ni465       O470   1.874       .  S
C466        O476   1.312       .  A
O467       Ni483   1.911       .  S
O467        C473   1.263       .  A
O468        C473   1.305       .  A
O470        C472   1.254       .  A
O471       Ni482   1.987       .  S
C472        O478   1.312       .  A
H474        O475   0.965       .  S
O475       Ni483   1.938       .  S
O475       Ni477   1.848       .  S
O475       Ni482   1.886       .  S
O476       Ni477   2.031       .  S
Ni477       O481   1.835       .  S
Ni477       O479   1.911       .  S
O478       Ni483   2.031       .  S
C480        O481   1.279       .  A
O485       Ni491   1.978       .  S
O485        C506   1.289       .  A
O486       Ni509   1.905       .  S
O486        C495   1.268       .  A
O487       Ni491   1.928       .  S
O487       Ni509   1.904       .  S
O487       Ni503   1.904       .  S
O487        H510   0.966       .  S
C488        O505   1.242       .  A
C488        O497   1.289       .  A
O489       Ni508   1.978       .  S
O489        C495   1.289       .  A
O490       Ni508   1.854       .  S
O490        C492   1.256       .  A
Ni491       O494   1.992       .  S
Ni491       O496   1.854       .  S
C492        O502   1.307       .  A
O493       Ni509   1.845       .  S
O493        C499   1.242       .  A
O494        C499   1.289       .  A
O496        C498   1.256       .  A
O497       Ni508   1.992       .  S
C498        O504   1.307       .  A
H500        O501   0.966       .  S
O501       Ni509   1.904       .  S
O501       Ni503   1.904       .  S
O501       Ni508   1.928       .  S
O502       Ni503   2.035       .  S
Ni503       O507   1.905       .  S
Ni503       O505   1.845       .  S
O504       Ni509   2.035       .  S
C506        O507   1.268       .  A
O511       Ni517   1.986       .  S
O511        C532   1.288       .  A
O512       Ni535   1.847       .  S
O512        C521   1.272       .  A
O513       Ni517   1.882       .  S
O513       Ni535   1.858       .  S
O513       Ni529   1.927       .  S
O513        H536   0.966       .  S
C514        O531   1.254       .  A
C514        O523   1.302       .  A
O515       Ni534   1.986       .  S
O515        C521   1.288       .  A
O516       Ni534   1.846       .  S
O516        C518   1.254       .  A
Ni517       O520   1.999       .  S
Ni517       O522   1.846       .  S
C518        O528   1.294       .  A
O519       Ni535   1.876       .  S
O519        C525   1.254       .  A
O520        C525   1.302       .  A
O522        C524   1.254       .  A
O523       Ni534   1.999       .  S
C524        O530   1.294       .  A
H526        O527   0.966       .  S
O527       Ni535   1.927       .  S
O527       Ni529   1.858       .  S
O527       Ni534   1.882       .  S
O528       Ni529   1.979       .  S
Ni529       O533   1.847       .  S
Ni529       O531   1.876       .  S
O530       Ni535   1.979       .  S
C532        O533   1.272       .  A
C537        C570   1.497       .  S
C537        N538   1.343       .  A
C537        N542   1.391       .  A
N538        C539   1.343       .  A
C539        N540   1.355       .  A
N540        C541   1.355       .  A
C541        C547   1.511       .  S
C541        N542   1.389       .  A
C543        N544   1.344       .  A
C543        N548   1.386       .  A
N544        C545   1.350       .  A
C545        N546   1.359       .  A
N546        C547   1.351       .  A
C547        N548   1.378       .  A
O549       Ni555   1.958       .  S
O549        C570   1.271       .  A
O550       Ni573   1.915       .  S
O550        C559   1.274       .  A
O551       Ni555   1.930       .  S
O551       Ni573   1.963       .  S
O551       Ni567   1.913       .  S
O551        H574   0.966       .  S
C552        O569   1.261       .  A
C552        O561   1.282       .  A
O553       Ni572   1.958       .  S
O553        C559   1.271       .  A
O554       Ni572   1.872       .  S
O554        C556   1.240       .  A
Ni555       O558   1.983       .  S
Ni555       O560   1.872       .  S
C556        O566   1.285       .  A
O557       Ni573   1.878       .  S
O557        C563   1.261       .  A
O558        C563   1.282       .  A
O560        C562   1.240       .  A
O561       Ni572   1.983       .  S
C562        O568   1.285       .  A
C563        C633   1.489       .  S
H564        O565   0.966       .  S
O565       Ni573   1.913       .  S
O565       Ni567   1.963       .  S
O565       Ni572   1.930       .  S
O566       Ni567   2.017       .  S
Ni567       O571   1.915       .  S
Ni567       O569   1.878       .  S
O568       Ni573   2.017       .  S
C570        O571   1.274       .  A
O575       Ni581   1.981       .  S
O575        C596   1.291       .  A
O576       Ni599   1.879       .  S
O576        C585   1.262       .  A
O577       Ni581   1.930       .  S
O577       Ni599   1.892       .  S
O577       Ni593   1.924       .  S
O577        H600   0.966       .  S
C578        O595   1.248       .  A
C578        O587   1.292       .  A
O579       Ni598   1.981       .  S
O579        C585   1.291       .  A
O580       Ni598   1.851       .  S
O580        C582   1.255       .  A
Ni581       O584   1.999       .  S
Ni581       O586   1.851       .  S
C582        O592   1.299       .  A
O583       Ni599   1.867       .  S
O583        C589   1.248       .  A
O584        C589   1.292       .  A
O586        C588   1.255       .  A
O587       Ni598   1.999       .  S
C588        O594   1.299       .  A
H590        O591   0.966       .  S
O591       Ni599   1.924       .  S
O591       Ni593   1.892       .  S
O591       Ni598   1.930       .  S
O592       Ni593   2.006       .  S
Ni593       O597   1.879       .  S
Ni593       O595   1.867       .  S
O594       Ni599   2.006       .  S
C596        O597   1.262       .  A
O601       Ni607   1.949       .  S
O601        C622   1.272       .  A
O602       Ni625   1.911       .  S
O602        C611   1.276       .  A
O603       Ni607   1.938       .  S
O603       Ni625   1.962       .  S
O603       Ni619   1.936       .  S
O603        H626   0.966       .  S
C604        O621   1.268       .  A
C604        O613   1.284       .  A
O605       Ni624   1.949       .  S
O605        C611   1.271       .  A
O606       Ni624   1.846       .  S
O606        C608   1.222       .  A
Ni607       O610   2.023       .  S
Ni607       O612   1.846       .  S
C608        O618   1.278       .  A
O609       Ni625   1.891       .  S
O609        C615   1.268       .  A
O610        C615   1.284       .  A
O612        C614   1.222       .  A
O613       Ni624   2.023       .  S
C614        O620   1.278       .  A
H616        O617   0.966       .  S
O617       Ni625   1.936       .  S
O617       Ni619   1.962       .  S
O617       Ni624   1.938       .  S
O618       Ni619   2.028       .  S
Ni619       O623   1.911       .  S
Ni619       O621   1.891       .  S
O620       Ni625   2.028       .  S
C622        O623   1.277       .  A
C627        C660   1.496       .  S
C627        N628   1.341       .  A
C627        N632   1.395       .  A
N628        C629   1.336       .  A
C629        N630   1.362       .  A
N630        C631   1.362       .  A
C631        C635   1.525       .  S
C631        N632   1.391       .  A
C633        N634   1.395       .  A
C633        N638   1.343       .  A
N634        C635   1.386       .  A
C635        N636   1.349       .  A
N636        C637   1.358       .  A
C637        N638   1.344       .  A
O639       Ni645   1.934       .  S
O639        C660   1.261       .  A
O640       Ni663   1.894       .  S
O640        C649   1.280       .  A
O641       Ni645   1.924       .  S
O641       Ni663   1.980       .  S
O641       Ni657   1.943       .  S
O641        H664   0.966       .  S
C642        O659   1.268       .  A
C642        O651   1.283       .  A
O643       Ni662   1.934       .  S
O643        C649   1.261       .  A
O644       Ni662   1.857       .  S
O644        C646   1.220       .  A
Ni645       O648   1.992       .  S
Ni645       O650   1.857       .  S
C646        O656   1.282       .  A
O647       Ni663   1.920       .  S
O647        C653   1.268       .  A
O648        C653   1.283       .  A
O650        C652   1.220       .  A
O651       Ni662   1.992       .  S
C652        O658   1.282       .  A
H654        O655   0.966       .  S
O655       Ni663   1.943       .  S
O655       Ni657   1.980       .  S
O655       Ni662   1.924       .  S
O656       Ni657   2.039       .  S
Ni657       O661   1.894       .  S
Ni657       O659   1.920       .  S
O658       Ni663   2.039       .  S
C660        O661   1.280       .  A
