geometry optimzed in LAMMPS
_audit_creation_date              2020-11-30 
_audit_creation_method            'lammps2cif' 
_symmetry_space_group_name_H-M    'P1' 
_symmetry_Int_Tables_number       1 
_symmetry_cell_setting            triclinic 
loop_ 
_symmetry_equiv_pos_as_xyz 
  x,y,z 
_cell_length_a                    31.37727254 
_cell_length_b                    31.406924560317783 
_cell_length_c                    40.80351349800073 
_cell_angle_alpha                 90.24658563659379 
_cell_angle_beta                  90.93511708856327 
_cell_angle_gamma                 90.19103932087673 
loop_ 
_atom_site_label 
_atom_site_type_symbol 
_atom_site_fract_x 
_atom_site_fract_y 
_atom_site_fract_z 
_atom_site_charge 
O1          O  0.23111192  0.50813687  0.80800779    -0.57700
C2          C  0.18940235  0.58994311  0.74382540     0.74900
O3          O  0.33090390  0.55674465  0.74741060    -0.58900
C4          C  0.26284084  0.48543809  0.81572196     0.74900
C5          C  0.24565238  0.47797193  0.69322029     0.77300
Cd6        Cd  0.25536205  0.52734035  0.75304713     1.37500
O7          O  0.18024063  0.55583677  0.75874603    -0.57700
O8          O  0.21971453  0.47524038  0.71657122    -0.56500
C9          C  0.32044340  0.59178321  0.76060868     0.77200
O10         O  0.27838508  0.50056532  0.69885110    -0.58900
O11         O  0.22586117  0.59189359  0.73124964    -0.57300
O12         O  0.28920005  0.47820534  0.79321119    -0.57300
O13         O  0.28313826  0.59408486  0.77149410    -0.56500
C14         C  0.09853786  0.66522688  0.75386674     0.80300
N15         N  0.12034660  0.62772452  0.75078395    -0.78000
C16         C  0.16256382  0.62819874  0.74372448     0.82800
N17         N  0.18274383  0.66587235  0.74010830    -0.77900
C18         C  0.16228171  0.70319915  0.74412264     0.82900
N19         N  0.12005101  0.70297491  0.75106620    -0.79600
C20         C  0.41201029  0.66830533  0.75883407     0.80300
N21         N  0.39009551  0.63049962  0.75881002    -0.78000
C22         C  0.34696777  0.63041811  0.76132893     0.82800
N23         N  0.32614340  0.66776603  0.76333781    -0.77900
C24         C  0.34676990  0.70540670  0.76194591     0.82900
N25         N  0.38997915  0.70593341  0.75943389    -0.79600
O26         O  0.18057085  0.77480613  0.76142702    -0.57700
C27         C  0.26179036  0.85725128  0.81229323     0.74900
O28         O  0.32953924  0.77815898  0.74719031    -0.58900
C29         C  0.18863315  0.74201588  0.74436448     0.74900
C30         C  0.24313634  0.85417230  0.69156637     0.77300
Cd31       Cd  0.25386043  0.80672506  0.75235329     1.37500
O32         O  0.23010920  0.83313819  0.80659478    -0.57700
O33         O  0.21640367  0.85546236  0.71445331    -0.56500
C34         C  0.31984704  0.74362505  0.76129743     0.77200
O35         O  0.27654396  0.83300859  0.69760318    -0.58900
O36         O  0.28850105  0.85987630  0.78949738    -0.57300
O37         O  0.22368446  0.74193636  0.72956516    -0.57300
O38         O  0.28282660  0.74125555  0.77278784    -0.56500
C39         C  0.91265165  0.66597152  0.75654392     0.80300
N40         N  0.88907273  0.62929786  0.75664738    -0.78000
C41         C  0.84621134  0.63071275  0.75200750     0.82800
N42         N  0.82696689  0.66864506  0.74794946    -0.77900
C43         C  0.84901737  0.70556844  0.74938486     0.82900
N44         N  0.89221109  0.70449473  0.75386215    -0.79600
O45         O  0.67898684  0.56116679  0.74827040    -0.57700
C46         C  0.76385095  0.48517013  0.69606526     0.74900
O47         O  0.82703726  0.55913618  0.76797332    -0.58900
C48         C  0.68836426  0.59457702  0.76444888     0.74900
C49         C  0.73941065  0.47969121  0.81565328     0.77300
Cd50       Cd  0.75267599  0.52981956  0.75737412     1.37500
O51         O  0.72949238  0.50384770  0.70292009    -0.57700
O52         O  0.71367281  0.47897954  0.79152340    -0.56500
C53         C  0.81867152  0.59291690  0.75216816     0.77200
O54         O  0.77328959  0.50094294  0.81168521    -0.58900
O55         O  0.79166382  0.48368631  0.71885151    -0.57300
O56         O  0.72444624  0.59535255  0.77861894    -0.57300
O57         O  0.78272950  0.59474425  0.73789431    -0.56500
C58         C  0.59786394  0.67150423  0.75817282     0.80300
N59         N  0.62040483  0.70896703  0.75874348    -0.78000
C60         C  0.66358693  0.70826666  0.76259585     0.82800
N61         N  0.68370606  0.67062233  0.76577888    -0.77900
C62         C  0.66237723  0.63338225  0.76427490     0.82900
N63         N  0.61926722  0.63361259  0.76037749    -0.79600
O64         O  0.68122450  0.78051756  0.74690174    -0.57700
C65         C  0.76216041  0.85599912  0.69192920     0.74900
O66         O  0.77930040  0.83624816  0.80811714    -0.58900
C67         C  0.69105146  0.74615424  0.76134759     0.74900
C68         C  0.82323694  0.74478040  0.74781658     0.77300
Cd69       Cd  0.75709986  0.80907462  0.75317104     1.37500
O70         O  0.73361346  0.82853138  0.69730594    -0.57700
O71         O  0.78678319  0.74292541  0.73430698    -0.56500
C72         C  0.74472794  0.85525127  0.81399353     0.77200
O73         O  0.83281213  0.77957757  0.76212047    -0.58900
O74         O  0.78735978  0.86404928  0.71573054    -0.57300
O75         O  0.72851079  0.74365604  0.77289866    -0.57300
O76         O  0.71779078  0.85654733  0.79062111    -0.56500
C77         C  0.99702941  0.26516390  0.50291828     0.80300
N78         N  0.95978355  0.28763454  0.50248888    -0.78000
C79         C  0.96025849  0.33027785  0.49743776     0.82800
N80         N  0.99781533  0.35039857  0.49370771    -0.77900
C81         C  0.03518218  0.32936329  0.49581536     0.82900
N82         N  0.03508422  0.28645720  0.50064505    -0.79600
O83         O  0.83441399  0.39830694  0.55961158    -0.57700
C84         C  0.92187944  0.35675776  0.49780451     0.74900
O85         O  0.82704565  0.44360354  0.45178945    -0.58900
C86         C  0.81569035  0.43253536  0.56691982     0.74900
C87         C  0.92233234  0.48738514  0.51005302     0.77300
Cd88       Cd  0.85818285  0.42172855  0.50517163     1.37500
O89         O  0.88981094  0.34894119  0.51535953    -0.57700
O90         O  0.92547293  0.45059805  0.52214905    -0.56500
C91         C  0.80528020  0.41023217  0.44678450     0.77200
O92         O  0.88680662  0.49684955  0.49674743    -0.58900
O93         O  0.92161240  0.39149222  0.48231224    -0.57300
O94         O  0.81344368  0.46024629  0.54454798    -0.57300
O95         O  0.80589019  0.38343842  0.46987399    -0.56500
C96         C  0.99741704  0.57983623  0.50526067     0.80300
N97         N  0.95984750  0.55751332  0.50612529    -0.78000
C98         C  0.96052254  0.51447717  0.50963692     0.82800
N99         N  0.99822504  0.49423302  0.51184014    -0.77900
C100        C  0.03557692  0.51519668  0.50974516     0.82900
N101        N  0.03540602  0.55827675  0.50618337    -0.79600
O102        O  0.15810675  0.39739283  0.55858256    -0.57700
C103        C  0.07380219  0.35585600  0.49545162     0.74900
O104        O  0.10870869  0.49790318  0.49606032    -0.58900
C105        C  0.18369783  0.42746022  0.56510304     0.74900
C106        C  0.18230573  0.41331673  0.44256683     0.77300
Cd107      Cd  0.13703472  0.42188517  0.50338359     1.37500
O108        O  0.10877415  0.34621350  0.50950944    -0.57700
O109        O  0.18716664  0.38671501  0.46553218    -0.56500
C110        C  0.07412596  0.48856058  0.51006632     0.77200
O111        O  0.15994720  0.44558138  0.44896887    -0.58900
O112        O  0.07131404  0.39266192  0.48329956    -0.57300
O113        O  0.19044338  0.45336278  0.54203072    -0.57300
O114        O  0.07189946  0.45190318  0.52247916    -0.56500
C115        C  0.99199600  0.76537716  0.50196164     0.80300
N116        N  0.02988111  0.78706572  0.50458133    -0.78000
C117        C  0.03010480  0.82988641  0.50928532     0.82800
N118        N  0.99279053  0.85076111  0.51108756    -0.77900
C119        C  0.95507438  0.83041768  0.50756445     0.82900
N120        N  0.95441048  0.78743288  0.50297555    -0.79600
C121        C  0.99493946  0.07968728  0.50815863     0.80300
N122        N  0.95670364  0.05844051  0.50545166    -0.78000
C123        C  0.95605125  0.01561590  0.50025161     0.82800
N124        N  0.99320005  0.99449707  0.49798562    -0.77900
C125        C  0.03112086  0.01442221  0.50149177     0.82900
N126        N  0.03219045  0.05723097  0.50654899    -0.79600
O127        O  0.16026694  0.94386163  0.55901617    -0.57700
C128        C  0.06915834  0.98730893  0.50064426     0.74900
O129        O  0.15325654  0.89936352  0.44835910    -0.58900
C130        C  0.18282774  0.91142493  0.56474001     0.74900
C131        C  0.06897504  0.85603766  0.51053041     0.77300
Cd132      Cd  0.13302695  0.92144210  0.50449735     1.37500
O133        O  0.10486847  0.99666251  0.51387676    -0.57700
O134        O  0.06766103  0.89207612  0.52427500    -0.56500
C135        C  0.17444507  0.93241031  0.44174026     0.77200
O136        O  0.10306988  0.84682108  0.49582146    -0.58900
O137        O  0.06576684  0.95066171  0.48807541    -0.57300
O138        O  0.18573490  0.88505907  0.54131616    -0.57300
O139        O  0.17984149  0.95851871  0.46519154    -0.56500
O140        O  0.83136574  0.90069906  0.44586493    -0.57700
C141        C  0.91692707  0.85741916  0.50750181     0.74900
O142        O  0.88262965  0.99787865  0.51274686    -0.58900
C143        C  0.80633467  0.93126431  0.44003393     0.74900
C144        C  0.80650268  0.90914187  0.56146107     0.77300
Cd145      Cd  0.85311160  0.92296818  0.50151787     1.37500
O146        O  0.88167997  0.84770719  0.49371541    -0.57700
O147        O  0.80675861  0.88243479  0.53822926    -0.56500
C148        C  0.91703298  0.98949346  0.49814928     0.77200
O149        O  0.82535566  0.94404144  0.55601188    -0.58900
O150        O  0.91986194  0.89435888  0.51966071    -0.57300
O151        O  0.80004898  0.95665070  0.46362421    -0.57300
O152        O  0.91863463  0.95401856  0.48358073    -0.56500
C153        C  0.50241416  0.58009566  0.99930991     0.80300
N154        N  0.53925661  0.55697182  0.99779002    -0.78000
C155        C  0.53747704  0.51401203  0.99372653     0.82800
N156        N  0.49926371  0.49443883  0.99185922    -0.77900
C157        C  0.46259528  0.51615159  0.99504647     0.82900
N158        N  0.46393649  0.55921636  0.99905107    -0.79600
O159        O  0.60576757  0.34527876  0.99626524    -0.57700
C160        C  0.68504672  0.42773781  0.94385113     0.74900
O161        O  0.60951653  0.49524806  0.00961504    -0.58900
C162        C  0.57255504  0.35520066  0.01186774     0.74900
C163        C  0.68354947  0.41186076  0.06517629     0.77300
Cd164      Cd  0.63709306  0.41986654  0.00361920     1.37500
O165        O  0.66228016  0.39532065  0.94943917    -0.57700
O166        O  0.68464876  0.38363286  0.04301391    -0.56500
C167        C  0.57500769  0.48627728  0.99448117     0.77200
O168        O  0.66373169  0.44560033  0.05782222    -0.58900
O169        O  0.68819540  0.45467419  0.96688219    -0.57300
O170        O  0.57203912  0.39185572  0.02470377    -0.57300
O171        O  0.57198981  0.44938350  0.98222470    -0.56500
C172        C  0.49412451  0.26509556  0.00797729     0.80300
N173        N  0.53249006  0.28616633  0.00842963    -0.78000
C174        C  0.53360902  0.32913833  0.01281530     0.82800
N175        N  0.49682760  0.35055160  0.01619535    -0.77900
C176        C  0.45868937  0.33085947  0.01425780     0.82900
N177        N  0.45706644  0.28791202  0.00984596    -0.79600
O178        O  0.33012439  0.40103744  0.95453312    -0.57700
C179        C  0.42116675  0.35865582  0.01452746     0.74900
O180        O  0.39175817  0.49995599  0.01424161    -0.58900
C181        C  0.31191270  0.43553728  0.94701362     0.74900
C182        C  0.31361208  0.41831995  0.06804028     0.77300
Cd183      Cd  0.35951711  0.42597488  0.00745527     1.37500
O184        O  0.38599525  0.35005155  0.00022533    -0.57700
O185        O  0.30718788  0.39325646  0.04412957    -0.56500
C186        C  0.42361950  0.49030258  0.99697502     0.77200
O187        O  0.33862614  0.44919214  0.06294288    -0.58900
O188        O  0.42487211  0.39539103  0.02696106    -0.57300
O189        O  0.31186759  0.46391734  0.96916340    -0.57300
O190        O  0.42302827  0.45394506  0.98360762    -0.56500
C191        C  0.49882733  0.07949088  0.00580217     0.74700
N192        N  0.46160265  0.05692897  0.00819836    -0.78000
C193        C  0.46259272  0.01402472  0.01220897     0.82800
N194        N  0.50049335  0.99396080  0.01368631    -0.77900
C195        C  0.53760351  0.01523650  0.01040211     0.82900
N196        N  0.53697294  0.05827320  0.00636737    -0.79600
C197        C  0.50107897  0.76595746  0.00201512     0.80300
N198        N  0.53854148  0.78824214  0.99968827    -0.78000
C199        C  0.53788453  0.83096262  0.99441010     0.82800
N200        N  0.50011375  0.85106140  0.99163475    -0.77900
C201        C  0.46281584  0.83014238  0.99489052     0.82900
N202        N  0.46309465  0.78734475  0.00017150    -0.79600
O203        O  0.66690638  0.89968208  0.05575918    -0.57700
C204        C  0.57626336  0.85797643  0.99427193     0.74900
O205        O  0.60953032  0.99838808  0.99343563    -0.58900
C206        C  0.69042853  0.93154203  0.06183378     0.74900
C207        C  0.68654520  0.91230867  0.94067600     0.77300
Cd208      Cd  0.64046745  0.92370396  0.00136001     1.37500
O209        O  0.61080362  0.84904018  0.00926928    -0.57700
O210        O  0.68633908  0.88480009  0.96323445    -0.56500
C211        C  0.57644687  0.98907986  0.00944247     0.77200
O212        O  0.66808201  0.94701609  0.94715535    -0.58900
O213        O  0.57416703  0.89426761  0.98113137    -0.57300
O214        O  0.69354022  0.95820693  0.03880151    -0.57300
O215        O  0.57595779  0.95290762  0.02278355    -0.56500
O216        O  0.39048860  0.84707299  0.01045224    -0.57700
C217        C  0.31176171  0.93134947  0.06314382     0.74900
O218        O  0.38976760  0.99648286  0.99712252    -0.58900
C219        C  0.42416557  0.85656328  0.99525019     0.74900
C220        C  0.31166523  0.91290837  0.94209150     0.77300
Cd221      Cd  0.36015951  0.92173291  0.00319331     1.37500
O222        O  0.33297656  0.89805674  0.05735519    -0.57700
O223        O  0.30986405  0.88580946  0.96486319    -0.56500
C224        C  0.42428306  0.98702225  0.01196125     0.77200
O225        O  0.33378324  0.94582224  0.94832047    -0.58900
O226        O  0.31067724  0.95847373  0.04029840    -0.57300
O227        O  0.42536118  0.89304464  0.98239299    -0.57300
O228        O  0.42640110  0.95031476  0.02437074    -0.56500
O229        O  0.27200983  0.33729883  0.31020167    -0.57700
C230        C  0.31199409  0.24473269  0.24883308     0.74900
O231        O  0.17513407  0.28509985  0.24154761    -0.58900
C232        C  0.23913022  0.35936878  0.31521718     0.74900
C233        C  0.26550148  0.36191336  0.19662226     0.77300
Cd234      Cd  0.25019417  0.31185789  0.25481733     1.37500
O235        O  0.32231534  0.27758930  0.26537316    -0.57700
O236        O  0.29224394  0.36078655  0.22011223    -0.56500
C237        C  0.18089660  0.25105060  0.25762607     0.77200
O238        O  0.23097983  0.34198964  0.20106900    -0.58900
O239        O  0.27639975  0.24558480  0.23400083    -0.57300
O240        O  0.21301695  0.36175846  0.29133272    -0.57300
O241        O  0.21562913  0.24805194  0.27352531    -0.56500
C242        C  0.39940613  0.16467916  0.25514064     0.80300
N243        N  0.37931978  0.20326265  0.25397919    -0.78000
C244        C  0.33651006  0.20504818  0.24876253     0.82800
N245        N  0.31416458  0.16860360  0.24491957    -0.77900
C246        C  0.33304592  0.13017649  0.24693185     0.82900
N247        N  0.37596218  0.12793968  0.25200967    -0.79600
O248        O  0.31173969  0.05820890  0.26037898    -0.57700
C249        C  0.22386015  0.98774367  0.31204771     0.74900
O250        O  0.16163187  0.06511879  0.24059956    -0.58900
C251        C  0.30454681  0.09299515  0.24564559     0.74900
C252        C  0.24728747  0.98586398  0.18883537     0.77300
Cd253      Cd  0.23559869  0.03232635  0.25017658     1.37500
O254        O  0.25738309  0.00826236  0.30566756    -0.57700
O255        O  0.27171628  0.98071556  0.21348614    -0.56500
C256        C  0.17254679  0.09921043  0.25537245     0.77200
O257        O  0.21498953  0.00890129  0.19361987    -0.58900
O258        O  0.19700414  0.98436150  0.28862764    -0.57300
O259        O  0.26851110  0.09672188  0.23177695    -0.57300
O260        O  0.20911480  0.09956866  0.26872831    -0.56500
C261        C  0.08484810  0.18021738  0.25094294     0.80300
N262        N  0.10917299  0.21652452  0.25222323    -0.78000
C263        C  0.15222670  0.21392883  0.25596831     0.82800
N264        N  0.17071701  0.17535623  0.25781177    -0.77900
C265        C  0.14784476  0.13904934  0.25508359     0.82900
N266        N  0.10462322  0.14124448  0.25151993    -0.79600
C267        C  0.89852139  0.18188522  0.25349069     0.80300
N268        N  0.87761065  0.14370838  0.25523852    -0.78000
C269        C  0.83528869  0.14241532  0.26155780     0.82800
N270        N  0.81401718  0.17909268  0.26603639    -0.77900
C271        C  0.83341508  0.21729156  0.26358282     0.82900
N272        N  0.87593065  0.21897041  0.25714255    -0.79600
O273        O  0.77470842  0.01354052  0.19707083    -0.57700
C274        C  0.80983653  0.10316323  0.26037604     0.74900
O275        O  0.67198099  0.06207209  0.25834868    -0.58900
C276        C  0.74371838  0.98931577  0.18986883     0.74900
C277        C  0.75945314  0.98682599  0.31003532     0.77300
Cd278      Cd  0.74777053  0.03644026  0.25082934     1.37500
O279        O  0.82071149  0.06980107  0.24507538    -0.57700
O280        O  0.78688971  0.98841712  0.28776671    -0.56500
C281        C  0.67908475  0.09634642  0.24299095     0.77200
O282        O  0.72499017  0.00636027  0.30406386    -0.58900
O283        O  0.77321511  0.10307588  0.27275826    -0.57300
O284        O  0.71620153  0.98456745  0.21191986    -0.57300
O285        O  0.71487213  0.09971371  0.22952839    -0.56500
C286        C  0.58424794  0.16689636  0.25063370     0.80300
N287        N  0.60804309  0.13063162  0.24823256    -0.78000
C288        C  0.65066179  0.13335478  0.24333158     0.82800
N289        N  0.66926255  0.17200118  0.24149075    -0.77900
C290        C  0.64687223  0.20822831  0.24538054     0.82900
N291        N  0.60407812  0.20587905  0.25027157    -0.79600
O292        O  0.81201506  0.28919415  0.24952713    -0.57700
C293        C  0.72713094  0.36247796  0.19730283     0.74900
O294        O  0.66089328  0.28134200  0.26212990    -0.58900
C295        C  0.80513401  0.25459412  0.26446497     0.74900
C296        C  0.74278537  0.35848823  0.31903735     0.77300
Cd297      Cd  0.73534351  0.31404569  0.25717420     1.37500
O298        O  0.75871073  0.33884347  0.20364554    -0.57700
O299        O  0.76679252  0.36759159  0.29542627    -0.56500
C300        C  0.67188743  0.24796554  0.24685899     0.77200
O301        O  0.71256375  0.33289439  0.31273026    -0.58900
O302        O  0.70018591  0.36634597  0.21988384    -0.57300
O303        O  0.76926016  0.25088157  0.27776687    -0.57300
O304        O  0.70870779  0.24817475  0.23486639    -0.56500
C305        C  0.96945773  0.21649889  0.26386833    -0.09100
C306        C  0.94593784  0.18281797  0.24967271     0.07100
C307        C  0.96871988  0.14955269  0.23430426    -0.02800
C308        C  0.01352019  0.14972517  0.23476986    -0.07300
C309        C  0.03710276  0.18282734  0.24980169     0.06300
C310        C  0.01422730  0.21678172  0.26425645    -0.02300
Br311      Br  0.04119660  0.26303425  0.28768068    -0.02000
H312        H  0.95294646  0.24218666  0.27604213     0.10200
H313        H  0.03005568  0.12371567  0.22303967     0.08200
Br314      Br  0.94114836  0.10375014  0.21072746    -0.02400
C315        C  0.46809871  0.13376235  0.23699329    -0.09100
C316        C  0.44672105  0.16293812  0.25697912     0.07100
C317        C  0.47109617  0.19174047  0.27629055    -0.02800
C318        C  0.51569620  0.19239133  0.27404897    -0.07300
C319        C  0.53705632  0.16399976  0.25330520     0.06300
C320        C  0.51263842  0.13403824  0.23494522    -0.02300
Br321      Br  0.53736544  0.09497443  0.20432394    -0.02000
H322        H  0.44995566  0.11163228  0.22179023     0.10200
H323        H  0.53376202  0.21490497  0.28881961     0.08200
Br324      Br  0.44542160  0.22914118  0.30759119    -0.02400
C325        C  0.28594211  0.93304297  0.15446515    -0.09100
C326        C  0.25764953  0.96758677  0.15610062     0.07100
C327        C  0.24396448  0.98662373  0.12637075    -0.02800
C328        C  0.26053901  0.97272089  0.09651737    -0.07300
C329        C  0.29055220  0.93968697  0.09500969     0.06300
C330        C  0.30214226  0.91877375  0.12450054    -0.02300
Br331      Br  0.34207786  0.87259460  0.12647057    -0.02000
H332        H  0.29667502  0.91769647  0.17689395     0.10200
H333        H  0.25077837  0.98904310  0.07425664     0.08200
Br334      Br  0.20569436  0.03418101  0.12430255    -0.02400
C335        C  0.74155691  0.97188847  0.09758799    -0.09100
C336        C  0.71107576  0.93913187  0.09448710     0.07100
C337        C  0.69748530  0.91848609  0.12331265    -0.02800
C338        C  0.71074109  0.93390749  0.15404955    -0.07300
C339        C  0.73820650  0.96908278  0.15712875     0.06300
C340        C  0.75545438  0.98674328  0.12838112    -0.02300
Br341      Br  0.79491937  0.03368811  0.12876466    -0.02000
H342        H  0.75327047  0.98751927  0.07590240     0.10200
H343        H  0.69803997  0.91915595  0.17585554     0.08200
Br344      Br  0.65862985  0.87109616  0.12341305    -0.02400
C345        C  0.24964785  0.37072381  0.13727349    -0.09100
C346        C  0.27454838  0.38267374  0.16477916     0.07100
C347        C  0.30902644  0.41107819  0.16024897    -0.02800
C348        C  0.31901578  0.42470401  0.12863765    -0.07300
C349        C  0.29603756  0.41001897  0.10095086     0.06300
C350        C  0.26014042  0.38369047  0.10567458    -0.02300
Br351      Br  0.22421379  0.36367380  0.07026425    -0.02000
H352        H  0.22262842  0.34935397  0.14007424     0.10200
H353        H  0.34661769  0.44521113  0.12559273     0.08200
Br354      Br  0.34468287  0.43191554  0.19555932    -0.02400
C355        C  0.52463968  0.19640688  0.98802271    -0.09100
C356        C  0.49322603  0.21761182  0.00604818     0.07100
C357        C  0.46327130  0.19275820  0.02318249    -0.02800
C358        C  0.46542284  0.14818341  0.02207230    -0.07300
C359        C  0.49728331  0.12697170  0.00452985     0.06300
C360        C  0.52688412  0.15175653  0.98707152    -0.02300
Br361      Br  0.56997104  0.12695224  0.96021109    -0.02000
H362        H  0.54767683  0.21469845  0.97447820     0.10200
H363        H  0.44269282  0.12996748  0.03600478     0.08200
Br364      Br  0.42085778  0.21701777  0.05106215    -0.02400
C365        C  0.68399378  0.42709615  0.12517832    -0.09100
C366        C  0.70128075  0.40452542  0.09865772     0.07100
C367        C  0.73125503  0.37215176  0.10536134    -0.02800
C368        C  0.74097947  0.36123104  0.13777158    -0.07300
C369        C  0.72100835  0.38127951  0.16423608     0.06300
C370        C  0.69324280  0.41562007  0.15770727    -0.02300
Br371      Br  0.66654086  0.44776583  0.19180914    -0.02000
H372        H  0.66125661  0.45248582  0.12065353     0.10200
H373        H  0.76288949  0.33512541  0.14216123     0.08200
Br374      Br  0.75960416  0.34056841  0.07174834    -0.02400
C375        C  0.47185105  0.64934573  0.01838611    -0.09100
C376        C  0.50390140  0.62764135  0.00135542     0.07100
C377        C  0.53586052  0.65212534  0.98603880    -0.02800
C378        C  0.53459237  0.69671331  0.98742083    -0.07300
C379        C  0.50207078  0.71843288  0.00379926     0.06300
C380        C  0.47096651  0.69405725  0.02006836    -0.02300
Br381      Br  0.42825055  0.71943492  0.04696489    -0.02000
H382        H  0.44759837  0.63145513  0.03088992     0.10200
H383        H  0.55869724  0.71455236  0.97464141     0.08200
Br384      Br  0.58069956  0.62766899  0.96060652    -0.02400
C385        C  0.74049777  0.97382074  0.36830096    -0.09100
C386        C  0.76800882  0.96575812  0.34207126     0.07100
C387        C  0.80493057  0.94103689  0.34815282    -0.02800
C388        C  0.81471985  0.92763380  0.38000104    -0.07300
C389        C  0.78912829  0.93884485  0.40653881     0.06300
C390        C  0.75077913  0.96082654  0.40028369    -0.02300
Br391      Br  0.71105854  0.97355528  0.43418586    -0.02000
H392        H  0.71149230  0.99196775  0.36425192     0.10200
H393        H  0.84416596  0.91031963  0.38428763     0.08200
Br394      Br  0.84493192  0.92560596  0.31498303    -0.02400
C395        C  0.22276014  0.97227317  0.40493513    -0.09100
C396        C  0.19062997  0.94145667  0.40831143     0.07100
C397        C  0.17200248  0.92362710  0.37949909    -0.02800
C398        C  0.18447600  0.93806325  0.34857323    -0.07300
C399        C  0.21555944  0.97002064  0.34524530     0.06300
C400        C  0.23528823  0.98663655  0.37407545    -0.02300
Br401      Br  0.27675979  0.03178761  0.37394090    -0.02000
H402        H  0.23742713  0.98648865  0.42660312     0.10200
H403        H  0.16883075  0.92488331  0.32690908     0.08200
Br404      Br  0.12698315  0.88201554  0.38010293    -0.02400
C405        C  0.19246377  0.40362921  0.35027397    -0.09100
C406        C  0.22977418  0.37926529  0.34752787     0.07100
C407        C  0.25402299  0.37092275  0.37638815    -0.02800
C408        C  0.23869158  0.38359576  0.40698349    -0.07300
C409        C  0.20021268  0.40583717  0.40968060     0.06300
C410        C  0.17765265  0.41699943  0.38076432    -0.02300
Br411      Br  0.12400226  0.44636438  0.38109081    -0.02000
H412        H  0.17339488  0.41090948  0.32856371     0.10200
H413        H  0.25667346  0.37536062  0.42893156     0.08200
Br414      Br  0.30760543  0.34151593  0.37660080    -0.02400
C415        C  0.96348850  0.64792966  0.48656833    -0.09100
C416        C  0.99661465  0.62730990  0.50389669     0.07100
C417        C  0.02727963  0.65269660  0.52062664    -0.02800
C418        C  0.02530557  0.69710930  0.51875731    -0.07300
C419        C  0.99248249  0.71785957  0.50133407     0.06300
C420        C  0.96103270  0.69260846  0.48525142    -0.02300
Br421      Br  0.91488181  0.71662468  0.46006155    -0.02000
H422        H  0.93939535  0.62917724  0.47377551     0.10200
H423        H  0.04901518  0.71563646  0.53218964     0.08200
Br424      Br  0.07023838  0.62952630  0.54941841    -0.02400
C425        C  0.76379450  0.36087655  0.41064452    -0.09100
C426        C  0.78258320  0.40120361  0.41513536     0.07100
C427        C  0.78283860  0.42954597  0.38819015    -0.02800
C428        C  0.76823634  0.41566255  0.35725413    -0.07300
C429        C  0.75164820  0.37450734  0.35262838     0.06300
C430        C  0.74831056  0.34744742  0.38000253    -0.02300
Br431      Br  0.72756972  0.28989948  0.37672736    -0.02000
H432        H  0.76280692  0.33848314  0.43091940     0.10200
H433        H  0.77042694  0.43702951  0.33649720     0.08200
Br434      Br  0.80253378  0.48741686  0.39138944    -0.02400
C435        C  0.02923217  0.19612301  0.52122141    -0.09100
C436        C  0.99589343  0.21781340  0.50511535     0.07100
C437        C  0.96241159  0.19355451  0.49068045    -0.02800
C438        C  0.96225010  0.14917033  0.49336826    -0.07300
C439        C  0.99562333  0.12726274  0.50920488     0.06300
C440        C  0.02954284  0.15145202  0.52326982    -0.02300
Br441      Br  0.07678880  0.12621418  0.54644418    -0.02000
H442        H  0.05524454  0.21401148  0.53238856     0.10200
H443        H  0.93654288  0.13153086  0.48152259     0.08200
Br444      Br  0.91807928  0.21795675  0.46369145    -0.02400
C445        C  0.70926707  0.90964673  0.84885345    -0.09100
C446        C  0.73507053  0.87332864  0.84669967     0.07100
C447        C  0.74710652  0.85224627  0.87587797    -0.02800
C448        C  0.73300564  0.86731923  0.90611259    -0.07300
C449        C  0.70596366  0.90276680  0.90836731     0.06300
C450        C  0.69465198  0.92450541  0.87914703    -0.02300
Br451      Br  0.65647096  0.97217209  0.87797534    -0.02000
H452        H  0.69920909  0.92586714  0.82661840     0.10200
H453        H  0.74176241  0.84966959  0.92807616     0.08200
Br454      Br  0.77770784  0.79937500  0.87607243    -0.02400
C455        C  0.75334065  0.85048573  0.63155448    -0.09100
C456        C  0.76737835  0.87458245  0.65875271     0.07100
C457        C  0.78905180  0.91326474  0.65313031    -0.02800
C458        C  0.79885636  0.92524763  0.62103174    -0.07300
C459        C  0.78802470  0.89918036  0.59397219     0.06300
C460        C  0.76361032  0.86201095  0.59955313    -0.02300
Br461      Br  0.74431411  0.82412936  0.56524046    -0.02000
H462        H  0.73605622  0.82092120  0.63523204     0.10200
H463        H  0.81690539  0.95439951  0.61744051     0.08200
Br464      Br  0.80613348  0.95114517  0.68799836    -0.02400
C465        C  0.80399250  0.43656934  0.65954985    -0.09100
C466        C  0.77224481  0.46761942  0.66296037     0.07100
C467        C  0.75263772  0.48431403  0.63432800    -0.02800
C468        C  0.76601428  0.47089155  0.60341835    -0.07300
C469        C  0.79873556  0.44090794  0.60003175     0.06300
C470        C  0.81736876  0.42315549  0.62862549    -0.02300
Br471      Br  0.86427492  0.38399956  0.62763977    -0.02000
H472        H  0.81971547  0.42360202  0.68120358     0.10200
H473        H  0.75157473  0.48511405  0.58178562     0.08200
Br474      Br  0.71040251  0.52848035  0.63509614    -0.02400
C475        C  0.75268233  0.47283510  0.87563688    -0.09100
C476        C  0.72928767  0.45979613  0.84763693     0.07100
C477        C  0.69429839  0.43185008  0.85174689    -0.02800
C478        C  0.68236305  0.41971016  0.88329425    -0.07300
C479        C  0.70397568  0.43528012  0.91129859     0.06300
C480        C  0.74026523  0.46121039  0.90715710    -0.02300
Br481      Br  0.77424322  0.48193645  0.94342122    -0.02000
H482        H  0.77995157  0.49397077  0.87321090     0.10200
H483        H  0.65442786  0.39956262  0.88596367     0.08200
Br484      Br  0.66035270  0.40975450  0.81586678    -0.02400
C485        C  0.24811609  0.86147808  0.87220852    -0.09100
C486        C  0.26862794  0.87835256  0.84474708     0.07100
C487        C  0.29787653  0.91220169  0.84971475    -0.02800
C488        C  0.30947389  0.92484615  0.88165917    -0.07300
C489        C  0.29195304  0.90497392  0.90918812     0.06300
C490        C  0.25911429  0.87468957  0.90408682    -0.02300
Br491      Br  0.22752280  0.85060272  0.93944870    -0.02000
H492        H  0.22436296  0.83650331  0.86904208     0.10200
H493        H  0.33376312  0.94930661  0.88492178     0.08200
Br494      Br  0.32259133  0.94301863  0.81415277    -0.02400
C495        C  0.19911810  0.90260695  0.65701847    -0.09100
C496        C  0.23397362  0.87474397  0.65931115     0.07100
C497        C  0.25573173  0.86433757  0.63019922    -0.02800
C498        C  0.23945459  0.87785461  0.59971399    -0.07300
C499        C  0.20285948  0.90340572  0.59742807     0.06300
C500        C  0.18388954  0.91741028  0.62675002    -0.02300
Br501      Br  0.13487028  0.95387711  0.62771220    -0.02000
H502        H  0.18250936  0.91200659  0.67893879     0.10200
H503        H  0.25516429  0.86772158  0.57756675     0.08200
Br504      Br  0.30691964  0.83101250  0.62965722    -0.02400
C505        C  0.48094675  0.70072426  0.74130487    -0.09100
C506        C  0.45953230  0.66864278  0.75854714     0.07100
C507        C  0.48415402  0.63799418  0.77559280    -0.02800
C508        C  0.52874143  0.63962386  0.77472990    -0.07300
C509        C  0.55026202  0.67143352  0.75731162     0.06300
C510        C  0.52568617  0.70219511  0.74031659    -0.02300
Br511      Br  0.55071143  0.74519525  0.71335610    -0.02000
H512        H  0.46277397  0.72435114  0.72791170     0.10200
H513        H  0.54677286  0.61615362  0.78845675     0.08200
Br514      Br  0.45950688  0.59465604  0.80255500    -0.02400
C515        C  0.98356030  0.69830148  0.77152711    -0.09100
C516        C  0.96029689  0.66383991  0.75814767     0.07100
C517        C  0.98340355  0.62867024  0.74572202    -0.02800
C518        C  0.02803466  0.62951624  0.74579825    -0.07300
C519        C  0.05126327  0.66462570  0.75799525     0.06300
C520        C  0.02836151  0.69879072  0.77195079    -0.02300
Br521      Br  0.05582979  0.74609147  0.79366099    -0.02000
H522        H  0.96679878  0.72506549  0.78197825     0.10200
H523        H  0.04465729  0.60284491  0.73501230     0.08200
Br524      Br  0.95724899  0.57930698  0.72573321    -0.02400
C525        C  0.29068375  0.43102190  0.85465067    -0.09100
C526        C  0.26996872  0.46998631  0.84957616     0.07100
C527        C  0.26025986  0.49552953  0.87700003    -0.02800
C528        C  0.27179627  0.48212284  0.90851455    -0.07300
C529        C  0.29392816  0.44384937  0.91370617     0.06300
C530        C  0.30274557  0.41774252  0.88620593    -0.02300
Br531      Br  0.33389332  0.36524582  0.88891905    -0.02000
H532        H  0.29868707  0.41134122  0.83383236     0.10200
H533        H  0.26521015  0.50304709  0.92899838     0.08200
Br534      Br  0.23648046  0.55164618  0.87313449    -0.02400
C535        C  0.24176753  0.45623456  0.60116240    -0.09100
C536        C  0.20339832  0.43335056  0.59813500     0.07100
C537        C  0.18280892  0.42025104  0.62698508    -0.02800
C538        C  0.19924914  0.43256363  0.65764009    -0.07300
C539        C  0.23593916  0.45814543  0.66069978     0.06300
C540        C  0.25837172  0.46840758  0.63190496    -0.02300
Br541      Br  0.31041847  0.50078666  0.63191928    -0.02000
H542        H  0.25841394  0.46594112  0.57930156     0.10200
H543        H  0.18162082  0.42381677  0.67930717     0.08200
Br544      Br  0.12958442  0.38977116  0.62686991    -0.02400
loop_ 
_geom_bond_atom_site_label_1 
_geom_bond_atom_site_label_2 
_geom_bond_distance 
_geom_bond_site_symmetry_2 
_ccdc_geom_bond_type 
O1            C4   1.263       .  A
O1           Cd6   2.457       .  S
C2           O11   1.263       .  A
C2            O7   1.269       .  A
C2           C16   1.470       .  S
O3            C9   1.270       .  A
O3           Cd6   2.555       .  S
C4           O12   1.266       .  A
C4          C526   1.480       .  S
C5           O10   1.264       .  A
C5            O8   1.266       .  A
C5          C539   1.490       .  S
Cd6          O13   2.382       .  S
Cd6          O12   2.484       .  S
Cd6          O11   2.400       .  S
Cd6           O7   2.538       .  S
Cd6          O10   2.482       .  S
Cd6           O8   2.461       .  S
C9           O13   1.261       .  A
C9           C22   1.469       .  S
C14         C519   1.496       .  S
C14          N15   1.371       .  A
C14          N19   1.368       .  A
N15          C16   1.360       .  A
C16          N17   1.350       .  A
N17          C18   1.349       .  A
C18          C29   1.471       .  S
C18          N19   1.360       .  A
C20         C506   1.491       .  S
C20          N21   1.370       .  A
C20          N25   1.371       .  A
N21          C22   1.359       .  A
C22          N23   1.347       .  A
N23          C24   1.348       .  A
C24          C34   1.470       .  S
C24          N25   1.361       .  A
O26          C29   1.269       .  A
O26         Cd31   2.539       .  S
C27          O36   1.265       .  A
C27          O32   1.266       .  A
C27         C486   1.490       .  S
O28          C34   1.268       .  A
O28         Cd31   2.553       .  S
C29          O37   1.263       .  A
C30          O35   1.264       .  A
C30          O33   1.266       .  A
C30         C496   1.493       .  S
Cd31         O38   2.398       .  S
Cd31         O37   2.417       .  S
Cd31         O36   2.485       .  S
Cd31         O32   2.487       .  S
Cd31         O35   2.499       .  S
Cd31         O33   2.468       .  S
C34          O38   1.262       .  A
C39         C516   1.497       .  S
C39          N40   1.367       .  A
C39          N44   1.375       .  A
N40          C41   1.356       .  A
C41          C53   1.466       .  S
C41          N42   1.347       .  A
N42          C43   1.349       .  A
C43          C68   1.477       .  S
C43          N44   1.365       .  A
O45          C48   1.268       .  A
O45         Cd50   2.538       .  S
C46          O55   1.266       .  A
C46          O51   1.264       .  A
C46         C466   1.485       .  S
O47          C53   1.270       .  A
O47         Cd50   2.535       .  S
C48          O56   1.263       .  A
C48          C62   1.469       .  S
C49          O54   1.266       .  A
C49          O52   1.263       .  A
C49         C476   1.488       .  S
Cd50         O57   2.388       .  S
Cd50         O56   2.407       .  S
Cd50         O55   2.474       .  S
Cd50         O51   2.462       .  S
Cd50         O54   2.475       .  S
Cd50         O52   2.460       .  S
C53          O57   1.262       .  A
C58         C509   1.493       .  S
C58          N59   1.371       .  A
C58          N63   1.371       .  A
N59          C60   1.362       .  A
C60          C67   1.468       .  S
C60          N61   1.348       .  A
N61          C62   1.346       .  A
C62          N63   1.359       .  A
O64          C67   1.268       .  A
O64         Cd69   2.550       .  S
C65          O74   1.266       .  A
C65          O70   1.264       .  A
C65         C456   1.488       .  S
O66          C72   1.266       .  A
O66         Cd69   2.484       .  S
C67          O75   1.262       .  A
C68          O73   1.270       .  A
C68          O71   1.263       .  A
Cd69         O76   2.477       .  S
Cd69         O75   2.387       .  S
Cd69         O74   2.505       .  S
Cd69         O70   2.464       .  S
Cd69         O73   2.574       .  S
Cd69         O71   2.408       .  S
C72          O76   1.265       .  A
C72         C446   1.484       .  S
C77         C436   1.491       .  S
C77          N78   1.367       .  A
C77          N82   1.371   1_655  A
N78          C79   1.356       .  A
C79          C84   1.466       .  S
C79          N80   1.346       .  A
N80          C81   1.349   1_655  A
C81         C103   1.468       .  S
C81          N82   1.363       .  A
O83          C86   1.264       .  A
O83         Cd88   2.469       .  S
C84          O93   1.263       .  A
C84          O89   1.269       .  A
O85          C91   1.263       .  A
O85         Cd88   2.474       .  S
C86          O94   1.265       .  A
C86         C469   1.483       .  S
C87          O92   1.269       .  A
C87          O90   1.262       .  A
C87          C98   1.468       .  S
Cd88         O95   2.471       .  S
Cd88         O94   2.467       .  S
Cd88         O93   2.408       .  S
Cd88         O89   2.529       .  S
Cd88         O92   2.548       .  S
Cd88         O90   2.386       .  S
C91          O95   1.266       .  A
C91         C426   1.490       .  S
C96         C416   1.493       .  S
C96          N97   1.371       .  A
C96         N101   1.373   1_655  A
N97          C98   1.360       .  A
C98          N99   1.347       .  A
N99         C100   1.346   1_655  A
C100        C110   1.473       .  S
C100        N101   1.361       .  A
O102        C105   1.262       .  A
O102       Cd107   2.464       .  S
C103        O112   1.262       .  A
C103        O108   1.268       .  A
O104        C110   1.269       .  A
O104       Cd107   2.567       .  S
C105        O113   1.267       .  A
C105        C536   1.484       .  S
C106        O111   1.263       .  A
C106        O109   1.266       .  A
C106        C409   1.481       .  S
Cd107       O114   2.394       .  S
Cd107       O113   2.482       .  S
Cd107       O112   2.386       .  S
Cd107       O108   2.549       .  S
Cd107       O111   2.462       .  S
Cd107       O109   2.481       .  S
C110        O114   1.262       .  A
C115        C419   1.493       .  S
C115        N116   1.371   1_655  A
C115        N120   1.371       .  A
N116        C117   1.358       .  A
C117        C131   1.468       .  S
C117        N118   1.347   1_455  A
N118        C119   1.348       .  A
C119        C141   1.469       .  S
C119        N120   1.362       .  A
C121        C439   1.495       .  S
C121        N122   1.374       .  A
C121        N126   1.369   1_655  A
N122        C123   1.361       .  A
C123        C148   1.473   1_545  S
C123        N124   1.347   1_545  A
N124        C125   1.348   1_665  A
C125        C128   1.469   1_545  S
C125        N126   1.360       .  A
O127        C130   1.263       .  A
O127       Cd132   2.469       .  S
C128        O137   1.262       .  A
C128        O133   1.269       .  A
O129        C135   1.263       .  A
O129       Cd132   2.483       .  S
C130        O138   1.267       .  A
C130        C499   1.488       .  S
C131        O136   1.269       .  A
C131        O134   1.262       .  A
Cd132       O139   2.483       .  S
Cd132       O138   2.499       .  S
Cd132       O137   2.391       .  S
Cd132       O133   2.554       .  S
Cd132       O136   2.543       .  S
Cd132       O134   2.399       .  S
C135        O139   1.266       .  A
C135        C396   1.491       .  S
O140        C143   1.263       .  A
O140       Cd145   2.458       .  S
C141        O150   1.262       .  A
C141        O146   1.268       .  A
O142        C148   1.269       .  A
O142       Cd145   2.562       .  S
C143        O151   1.266       .  A
C143        C389   1.482       .  S
C144        O149   1.266       .  A
C144        O147   1.263       .  A
C144        C459   1.490       .  S
Cd145       O152   2.399       .  S
Cd145       O151   2.495       .  S
Cd145       O150   2.390       .  S
Cd145       O146   2.551       .  S
Cd145       O149   2.489       .  S
Cd145       O147   2.461       .  S
C148        O152   1.262       .  A
C153        C376   1.496   1_556  S
C153        N154   1.369       .  A
C153        N158   1.372       .  A
N154        C155   1.360       .  A
C155        C167   1.467       .  S
C155        N156   1.347       .  A
N156        C157   1.347       .  A
C157        C186   1.469       .  S
C157        N158   1.362       .  A
O159        C162   1.269   1_556  A
O159       Cd164   2.552   1_556  S
C160        O169   1.264       .  A
C160        O165   1.265       .  A
C160        C479   1.483       .  S
O161        C167   1.268   1_554  A
O161       Cd164   2.536       .  S
C162        O170   1.263       .  A
C162        C174   1.470       .  S
C163        O168   1.265       .  A
C163        O166   1.265       .  A
C163        C366   1.486       .  S
Cd164       O171   2.399   1_554  S
Cd164       O170   2.394       .  S
Cd164       O169   2.469   1_554  S
Cd164       O165   2.480   1_554  S
Cd164       O168   2.483       .  S
Cd164       O166   2.461       .  S
C167        O171   1.263       .  A
C172        C356   1.493       .  S
C172        N173   1.372       .  A
C172        N177   1.371       .  A
N173        C174   1.361       .  A
C174        N175   1.346       .  A
N175        C176   1.346       .  A
C176        C179   1.468       .  S
C176        N177   1.361       .  A
O178        C181   1.263       .  A
O178       Cd183   2.458   1_556  S
C179        O188   1.263       .  A
C179        O184   1.268       .  A
O180        C186   1.269   1_554  A
O180       Cd183   2.543       .  S
C181        O189   1.267       .  A
C181        C529   1.487       .  S
C182        O187   1.265       .  A
C182        O185   1.264       .  A
C182        C349   1.484       .  S
Cd183       O190   2.398   1_554  S
Cd183       O189   2.459   1_554  S
Cd183       O188   2.393       .  S
Cd183       O184   2.545       .  S
Cd183       O187   2.475       .  S
Cd183       O185   2.464       .  S
C186        O190   1.263       .  A
C191        C359   1.493       .  S
C191        N192   1.369       .  A
C191        N196   1.372       .  A
N192        C193   1.358       .  A
C193        C224   1.469   1_545  S
C193        N194   1.348   1_545  A
N194        C195   1.349   1_565  A
C195        C211   1.473   1_545  S
C195        N196   1.363       .  A
C197        C379   1.495       .  S
C197        N198   1.371   1_554  A
C197        N202   1.371       .  A
N198        C199   1.360       .  A
C199        C204   1.471       .  S
C199        N200   1.348       .  A
N200        C201   1.349       .  A
C201        C219   1.472       .  S
C201        N202   1.362   1_556  A
O203        C206   1.263       .  A
O203       Cd208   2.478       .  S
C204        O213   1.263       .  A
C204        O209   1.269   1_556  A
O205        C211   1.269   1_556  A
O205       Cd208   2.561   1_556  S
C206        O214   1.266       .  A
C206        C336   1.490       .  S
C207        O212   1.265       .  A
C207        O210   1.265       .  A
C207        C449   1.491       .  S
Cd208       O215   2.401       .  S
Cd208       O214   2.484       .  S
Cd208       O213   2.406   1_554  S
Cd208       O209   2.544       .  S
Cd208       O212   2.500   1_554  S
Cd208       O210   2.460   1_554  S
C211        O215   1.262       .  A
O216        C219   1.269   1_554  A
O216       Cd221   2.550       .  S
C217        O226   1.266       .  A
C217        O222   1.265       .  A
C217        C329   1.493       .  S
O218        C224   1.269   1_556  A
O218       Cd221   2.537   1_556  S
C219        O227   1.263       .  A
C220        O225   1.266       .  A
C220        O223   1.265       .  A
C220        C489   1.489       .  S
Cd221       O228   2.407       .  S
Cd221       O227   2.404   1_554  S
Cd221       O226   2.471       .  S
Cd221       O222   2.497       .  S
Cd221       O225   2.496   1_554  S
Cd221       O223   2.470   1_554  S
C224        O228   1.263       .  A
O229        C232   1.264       .  A
O229       Cd234   2.479       .  S
C230        O239   1.262       .  A
C230        O235   1.269       .  A
C230        C244   1.467       .  S
O231        C237   1.269       .  A
O231       Cd234   2.547       .  S
C232        O240   1.266       .  A
C232        C406   1.490       .  S
C233        O238   1.265       .  A
C233        O236   1.264       .  A
C233        C346   1.487       .  S
Cd234       O241   2.408       .  S
Cd234       O240   2.467       .  S
Cd234       O239   2.398       .  S
Cd234       O235   2.540       .  S
Cd234       O238   2.459       .  S
Cd234       O236   2.485       .  S
C237        O241   1.263       .  A
C237        C263   1.471       .  S
C242        C316   1.486       .  S
C242        N243   1.368       .  A
C242        N247   1.371       .  A
N243        C244   1.358       .  A
C244        N245   1.348       .  A
N245        C246   1.348       .  A
C246        C251   1.469       .  S
C246        N247   1.361       .  A
O248        C251   1.268       .  A
O248       Cd253   2.548       .  S
C249        O258   1.268       .  A
C249        O254   1.263   1_565  A
C249        C399   1.493       .  S
O250        C256   1.270       .  A
O250       Cd253   2.567       .  S
C251        O259   1.262       .  A
C252        O257   1.264   1_565  A
C252        O255   1.266       .  A
C252        C326   1.493       .  S
Cd253       O260   2.396       .  S
Cd253       O259   2.397       .  S
Cd253       O258   2.504   1_545  S
Cd253       O254   2.476       .  S
Cd253       O257   2.494       .  S
Cd253       O255   2.490   1_545  S
C256        O260   1.262       .  A
C256        C265   1.474       .  S
C261        C309   1.501       .  S
C261        N262   1.370       .  A
C261        N266   1.374       .  A
N262        C263   1.360       .  A
C263        N264   1.347       .  A
N264        C265   1.349       .  A
C265        N266   1.364       .  A
C267        C306   1.499       .  S
C267        N268   1.368       .  A
C267        N272   1.374       .  A
N268        C269   1.357       .  A
C269        C274   1.467       .  S
C269        N270   1.347       .  A
N270        C271   1.348       .  A
C271        C295   1.473       .  S
C271        N272   1.365       .  A
O273        C276   1.263   1_545  A
O273       Cd278   2.469       .  S
C274        O283   1.263       .  A
C274        O279   1.268       .  A
O275        C281   1.269       .  A
O275       Cd278   2.536       .  S
C276        O284   1.266       .  A
C276        C339   1.484       .  S
C277        O282   1.266   1_565  A
C277        O280   1.263       .  A
C277        C386   1.489       .  S
Cd278       O285   2.402       .  S
Cd278       O284   2.464   1_545  S
Cd278       O283   2.402       .  S
Cd278       O279   2.529       .  S
Cd278       O282   2.487       .  S
Cd278       O280   2.455   1_545  S
C281        O285   1.262       .  A
C281        C288   1.468       .  S
C286        C319   1.489       .  S
C286        N287   1.368       .  A
C286        N291   1.372       .  A
N287        C288   1.358       .  A
C288        N289   1.348       .  A
N289        C290   1.349       .  A
C290        C300   1.473       .  S
C290        N291   1.363       .  A
O292        C295   1.268       .  A
O292       Cd297   2.555       .  S
C293        O302   1.266       .  A
C293        O298   1.264       .  A
C293        C369   1.485       .  S
O294        C300   1.269       .  A
O294       Cd297   2.560       .  S
C295        O303   1.263       .  A
C296        O301   1.264       .  A
C296        O299   1.266       .  A
C296        C429   1.480       .  S
Cd297       O304   2.399       .  S
Cd297       O303   2.403       .  S
Cd297       O302   2.492       .  S
Cd297       O298   2.445       .  S
Cd297       O301   2.459       .  S
Cd297       O299   2.481       .  S
C300        O304   1.262       .  A
C305        C306   1.405       .  A
C305        C310   1.405   1_655  A
C305        H312   1.083       .  S
C306        C307   1.418       .  A
C307        C308   1.406   1_655  A
C307       Br314   1.922       .  S
C308        C309   1.407       .  A
C308        H313   1.083       .  S
C309        C310   1.419       .  A
C310       Br311   1.922       .  S
C315        C316   1.404       .  A
C315        C320   1.401       .  A
C315        H322   1.084       .  S
C316        C317   1.412       .  A
C317        C318   1.404       .  A
C317       Br324   1.920       .  S
C318        C319   1.406       .  A
C318        H323   1.080       .  S
C319        C320   1.416       .  A
C320       Br321   1.922       .  S
C325        C326   1.406       .  A
C325        C330   1.404       .  A
C325        H332   1.085       .  S
C326        C327   1.416       .  A
C327        C328   1.401       .  A
C327       Br334   1.921   1_565  S
C328        C329   1.405       .  A
C328        H333   1.085       .  S
C329        C330   1.416       .  A
C330       Br331   1.921       .  S
C335        C336   1.406       .  A
C335        C340   1.401       .  A
C335        H342   1.083       .  S
C336        C337   1.417       .  A
C337        C338   1.399       .  A
C337       Br344   1.921       .  S
C338        C339   1.403       .  A
C338        H343   1.086       .  S
C339        C340   1.414       .  A
C340       Br341   1.922   1_565  S
C345        C346   1.406       .  A
C345        C350   1.398       .  A
C345        H352   1.087       .  S
C346        C347   1.415       .  A
C347        C348   1.401       .  A
C347       Br354   1.921       .  S
C348        C349   1.406       .  A
C348        H353   1.087       .  S
C349        C350   1.411       .  A
C350       Br351   1.920       .  S
C355        C356   1.407   1_556  A
C355        C360   1.405       .  A
C355        H362   1.082       .  S
C356        C357   1.415       .  A
C357        C358   1.402       .  A
C357       Br364   1.922       .  S
C358        C359   1.407       .  A
C358        H363   1.083       .  S
C359        C360   1.413   1_554  A
C360       Br361   1.919       .  S
C365        C366   1.408       .  A
C365        C370   1.403       .  A
C365        H372   1.086       .  S
C366        C367   1.412       .  A
C367        C368   1.397       .  A
C367       Br374   1.921       .  S
C368        C369   1.405       .  A
C368        H373   1.085       .  S
C369        C370   1.412       .  A
C370       Br371   1.921       .  S
C375        C376   1.408       .  A
C375        C380   1.406       .  A
C375        H382   1.080       .  S
C376        C377   1.417   1_554  A
C377        C378   1.402       .  A
C377       Br384   1.922       .  S
C378        C379   1.406   1_556  A
C378        H383   1.082       .  S
C379        C380   1.414       .  A
C380       Br381   1.919       .  S
C385        C386   1.409       .  A
C385        C390   1.402       .  A
C385        H392   1.086       .  S
C386        C387   1.416       .  A
C387        C388   1.397       .  A
C387       Br394   1.922       .  S
C388        C389   1.403       .  A
C388        H393   1.086       .  S
C389        C390   1.410       .  A
C390       Br391   1.919       .  S
C395        C396   1.404       .  A
C395        C400   1.401       .  A
C395        H402   1.084       .  S
C396        C397   1.417       .  A
C397        C398   1.404       .  A
C397       Br404   1.922       .  S
C398        C399   1.406       .  A
C398        H403   1.084       .  S
C399        C400   1.417       .  A
C400       Br401   1.922   1_565  S
C405        C406   1.406       .  A
C405        C410   1.398       .  A
C405        H412   1.086       .  S
C406        C407   1.417       .  A
C407        C408   1.402       .  A
C407       Br414   1.921       .  S
C408        C409   1.403       .  A
C408        H413   1.083       .  S
C409        C410   1.412       .  A
C410       Br411   1.922       .  S
C415        C416   1.409       .  A
C415        C420   1.407       .  A
C415        H422   1.083       .  S
C416        C417   1.413   1_655  A
C417        C418   1.399       .  A
C417       Br424   1.921       .  S
C418        C419   1.405   1_455  A
C418        H423   1.083       .  S
C419        C420   1.415       .  A
C420       Br421   1.920       .  S
C425        C426   1.405       .  A
C425        C430   1.397       .  A
C425        H432   1.089       .  S
C426        C427   1.418       .  A
C427        C428   1.403       .  A
C427       Br434   1.921       .  S
C428        C429   1.403       .  A
C428        H433   1.086       .  S
C429        C430   1.411       .  A
C430       Br431   1.922       .  S
C435        C436   1.406   1_455  A
C435        C440   1.406       .  A
C435        H442   1.083       .  S
C436        C437   1.415       .  A
C437        C438   1.399       .  A
C437       Br444   1.923       .  S
C438        C439   1.405       .  A
C438        H443   1.083       .  S
C439        C440   1.418   1_655  A
C440       Br441   1.921       .  S
C445        C446   1.404       .  A
C445        C450   1.404       .  A
C445        H452   1.085       .  S
C446        C447   1.411       .  A
C447        C448   1.399       .  A
C447       Br454   1.921       .  S
C448        C449   1.406       .  A
C448        H453   1.088       .  S
C449        C450   1.417       .  A
C450       Br451   1.921       .  S
C455        C456   1.405       .  A
C455        C460   1.399       .  A
C455        H462   1.086       .  S
C456        C457   1.412       .  A
C457        C458   1.403       .  A
C457       Br464   1.919       .  S
C458        C459   1.408       .  A
C458        H463   1.087       .  S
C459        C460   1.415       .  A
C460       Br461   1.922       .  S
C465        C466   1.404       .  A
C465        C470   1.400       .  A
C465        H472   1.086       .  S
C466        C467   1.415       .  A
C467        C468   1.399       .  A
C467       Br474   1.922       .  S
C468        C469   1.404       .  A
C468        H473   1.084       .  S
C469        C470   1.414       .  A
C470       Br471   1.922       .  S
C475        C476   1.407       .  A
C475        C480   1.400       .  A
C475        H482   1.087       .  S
C476        C477   1.416       .  A
C477        C478   1.401       .  A
C477       Br484   1.922       .  S
C478        C479   1.404       .  A
C478        H483   1.087       .  S
C479        C480   1.411       .  A
C480       Br481   1.920       .  S
C485        C486   1.406       .  A
C485        C490   1.401       .  A
C485        H492   1.086       .  S
C486        C487   1.414       .  A
C487        C488   1.403       .  A
C487       Br494   1.920       .  S
C488        C489   1.406       .  A
C488        H493   1.087       .  S
C489        C490   1.412       .  A
C490       Br491   1.920       .  S
C495        C496   1.405       .  A
C495        C500   1.399       .  A
C495        H502   1.083       .  S
C496        C497   1.417       .  A
C497        C498   1.405       .  A
C497       Br504   1.920       .  S
C498        C499   1.405       .  A
C498        H503   1.084       .  S
C499        C500   1.414       .  A
C500       Br501   1.922       .  S
C505        C506   1.407       .  A
C505        C510   1.406       .  A
C505        H512   1.082       .  S
C506        C507   1.414       .  A
C507        C508   1.401       .  A
C507       Br514   1.922       .  S
C508        C509   1.406       .  A
C508        H513   1.083       .  S
C509        C510   1.415       .  A
C510       Br511   1.920       .  S
C515        C516   1.407       .  A
C515        C520   1.406   1_655  A
C515        H522   1.083       .  S
C516        C517   1.420       .  A
C517        C518   1.401   1_655  A
C517       Br524   1.924       .  S
C518        C519   1.405       .  A
C518        H523   1.084       .  S
C519        C520   1.416       .  A
C520       Br521   1.921       .  S
C525        C526   1.402       .  A
C525        C530   1.402       .  A
C525        H532   1.082       .  S
C526        C527   1.412       .  A
C527        C528   1.397       .  A
C527       Br534   1.922       .  S
C528        C529   1.405       .  A
C528        H533   1.084       .  S
C529        C530   1.418       .  A
C530       Br531   1.922       .  S
C535        C536   1.404       .  A
C535        C540   1.402       .  A
C535        H542   1.085       .  S
C536        C537   1.414       .  A
C537        C538   1.398       .  A
C537       Br544   1.922       .  S
C538        C539   1.405       .  A
C538        H543   1.086       .  S
C539        C540   1.417       .  A
C540       Br541   1.921       .  S
