geometry optimzed in LAMMPS
_audit_creation_date              2020-11-30 
_audit_creation_method            'lammps2cif' 
_symmetry_space_group_name_H-M    'P1' 
_symmetry_Int_Tables_number       1 
_symmetry_cell_setting            triclinic 
loop_ 
_symmetry_equiv_pos_as_xyz 
  x,y,z 
_cell_length_a                    30.14293274 
_cell_length_b                    31.962770251293307 
_cell_length_c                    33.130372408798344 
_cell_angle_alpha                 89.34344327866171 
_cell_angle_beta                  90.14197605557926 
_cell_angle_gamma                 90.1915607607442 
loop_ 
_atom_site_label 
_atom_site_type_symbol 
_atom_site_fract_x 
_atom_site_fract_y 
_atom_site_fract_z 
_atom_site_charge 
N1          N  0.30604862  0.44601185  0.04371728    -0.06700
N2          N  0.33721021  0.43201130  0.06879190    -0.58800
N3          N  0.27329073  0.41735280  0.95239278    -0.06400
N4          N  0.28130100  0.38543579  0.92873282    -0.60900
N5          N  0.30682056  0.44390289  0.95180687    -0.06000
N6          N  0.33876468  0.42971750  0.92830710    -0.58800
N7          N  0.27181466  0.42032517  0.04447732    -0.05600
N8          N  0.27833015  0.38956078  0.07039254    -0.61300
C9          C  0.31883172  0.39711476  0.08585215     0.95500
C10         C  0.32184066  0.39365751  0.91341567     0.95300
N11         N  0.13971020  0.45027916  0.94908818    -0.06900
N12         N  0.11897688  0.44927764  0.91396937    -0.59400
N13         N  0.16935267  0.42454365  0.04450013    -0.05000
N14         N  0.16877015  0.40537815  0.07993258    -0.60600
N15         N  0.13855422  0.45346509  0.04279929    -0.06900
N16         N  0.11608343  0.45439931  0.07692317    -0.59600
N17         N  0.17027964  0.42115364  0.95078984    -0.04600
N18         N  0.17093488  0.39975176  0.91707192    -0.60700
Mn19       Mn  0.22066249  0.41985677  0.99805513     1.18400
C20         C  0.13859566  0.41733767  0.89440583     0.97600
C21         C  0.13516391  0.42403502  0.09964750     0.98200
N22         N  0.31068508  0.54561668  0.94815121    -0.06900
N23         N  0.34465708  0.55915853  0.92614741    -0.63200
N24         N  0.27841104  0.57635298  0.03762481    -0.05700
N25         N  0.28984797  0.60894368  0.05935932    -0.63900
N26         N  0.30982026  0.54772616  0.03908916    -0.06400
N27         N  0.34353159  0.56102902  0.06124013    -0.63500
N28         N  0.27799219  0.57286057  0.94591464    -0.05300
N29         N  0.28842594  0.60417781  0.92168764    -0.64200
Mn30       Mn  0.30971749  0.49567132  0.99574226     1.10700
C31         C  0.32966658  0.59528338  0.90904090     0.98800
C32         C  0.33000513  0.59878031  0.07453048     0.98900
N33         N  0.14144288  0.55013286  0.03834302    -0.06400
N34         N  0.11718980  0.55460872  0.07105970    -0.61800
N35         N  0.17396207  0.57406881  0.94412852    -0.05700
N36         N  0.17295483  0.59426560  0.90917615    -0.58500
N37         N  0.14121106  0.54692865  0.94614383    -0.07100
N38         N  0.11691747  0.54838426  0.91304733    -0.61400
N39         N  0.17397625  0.57757103  0.03759606    -0.06000
N40         N  0.17270745  0.60121494  0.06988873    -0.58600
Mn41       Mn  0.13835789  0.50007498  0.99411798     1.20200
Mn42       Mn  0.22569857  0.57617371  0.99125230     1.10100
Cl43       Cl  0.22408769  0.49806466  0.99479742    -0.86500
C44         C  0.13697043  0.58673714  0.09033105     0.95800
C45         C  0.13670875  0.57841503  0.89051079     0.95600
N46         N  0.85876373  0.44796852  0.04938744    -0.06700
N47         N  0.88085534  0.44908522  0.08365674    -0.58800
N48         N  0.83135683  0.41270019  0.95747444    -0.06400
N49         N  0.83326242  0.38948365  0.92479855    -0.60900
N50         N  0.86290962  0.44108747  0.95684788    -0.06000
N51         N  0.88694020  0.43776399  0.92388244    -0.58800
N52         N  0.82732200  0.41945341  0.05098974    -0.05600
N53         N  0.82752161  0.40032515  0.08655006    -0.61300
C54         C  0.86128275  0.41909462  0.10646371     0.95500
C55         C  0.86836294  0.40526467  0.90420601     0.95300
N56         N  0.69612986  0.44108285  0.95021835    -0.06900
N57         N  0.66633568  0.42773996  0.92380890    -0.59400
N58         N  0.72300845  0.41914963  0.04545413    -0.05000
N59         N  0.71076370  0.38835733  0.06972702    -0.60600
N60         N  0.69069932  0.44660535  0.04127011    -0.06900
N61         N  0.65554801  0.43401965  0.06203151    -0.59600
N62         N  0.72835591  0.41353359  0.95395280    -0.04600
N63         N  0.72181076  0.38185031  0.92973337    -0.60700
Mn64       Mn  0.77779476  0.41506246  0.00226804     1.18400
C65         C  0.68340301  0.39103361  0.91082274     0.97600
C66         C  0.66899962  0.39815047  0.08039793     0.98200
N67         N  0.86353704  0.53699570  0.94922881    -0.06900
N68         N  0.88593434  0.53361592  0.91532027    -0.63200
N69         N  0.82846004  0.57255964  0.03925099    -0.05700
N70         N  0.82724996  0.59537073  0.07219620    -0.63900
N71         N  0.85985905  0.54430361  0.04213536    -0.06400
N72         N  0.88096770  0.54754868  0.07687482    -0.63500
N73         N  0.83243973  0.56544694  0.94548352    -0.05300
N74         N  0.83296547  0.58192904  0.90886633    -0.64200
Mn75       Mn  0.86312064  0.49268507  0.99951331     1.10700
C76         C  0.86662716  0.56195811  0.89047582     0.98800
C77         C  0.86061014  0.57980117  0.09514778     0.98900
N78         N  0.69198933  0.54842228  0.03427941    -0.06400
N79         N  0.65870904  0.56422748  0.05529167    -0.61800
N80         N  0.72923969  0.56906991  0.94224357    -0.05700
N81         N  0.71980028  0.60094742  0.91826301    -0.58500
N82         N  0.69573477  0.54251611  0.94367081    -0.07100
N83         N  0.66240505  0.55699689  0.92149228    -0.61400
N84         N  0.72553638  0.57496409  0.03370112    -0.06000
N85         N  0.71643659  0.60827836  0.05495302    -0.58600
Mn86       Mn  0.69235473  0.49448621  0.99236137     1.20200
Mn87       Mn  0.77954684  0.57142664  0.99010241     1.10100
Cl88       Cl  0.77786889  0.49338756  0.99617764    -0.86500
C89         C  0.67504814  0.60127027  0.06862120     0.95800
C90         C  0.67841019  0.59296563  0.90493056     0.95600
N91         N  0.44406876  0.04126198  0.28590368    -0.06700
N92         N  0.42605633  0.06124304  0.31689756    -0.58800
N93         N  0.41821979  0.94645891  0.25546007    -0.06400
N94         N  0.38347771  0.92356986  0.26534898    -0.60900
N95         N  0.44746664  0.94682932  0.28522479    -0.06000
N96         N  0.43181135  0.92461442  0.31626061    -0.58800
N97         N  0.41553948  0.04096322  0.25561804    -0.05600
N98         N  0.37918198  0.06116700  0.26483262    -0.61300
C99         C  0.38571182  0.07405359  0.30276539     0.95500
C100        C  0.39231596  0.90933765  0.30285799     0.95300
N101        N  0.44642123  0.94779974  0.13189170    -0.06900
N102        N  0.44859881  0.91117378  0.11391237    -0.59400
N103        N  0.41549841  0.04571970  0.16255924    -0.05000
N104        N  0.39669387  0.08269228  0.16685391    -0.60600
N105        N  0.44394127  0.04688964  0.13257892    -0.06900
N106        N  0.44465798  0.08470896  0.11578602    -0.59600
N107        N  0.41730941  0.94645909  0.16128336    -0.04600
N108        N  0.39866833  0.90905093  0.16351841    -0.60700
Mn109      Mn  0.41589404  0.99478290  0.20792617     1.18400
C110        C  0.41824771  0.88747531  0.13359634     0.97600
C111        C  0.41470813  0.10669829  0.13725017     0.98200
N112        N  0.55817358  0.94991197  0.28174681    -0.06900
N113        N  0.57680990  0.92631728  0.31048933    -0.63200
N114        N  0.58125282  0.04546311  0.24949550    -0.05700
N115        N  0.61530304  0.07026337  0.25545576    -0.63900
N116        N  0.55494294  0.04456189  0.28129388    -0.06400
N117        N  0.57218811  0.06832360  0.31008629    -0.63500
N118        N  0.58436342  0.95107894  0.24989552    -0.05300
N119        N  0.61976891  0.92798180  0.25580673    -0.64200
Mn120      Mn  0.50132572  0.99566194  0.28507299     1.10700
C121        C  0.61492991  0.91219528  0.29327002     0.98800
C122        C  0.60956985  0.08466812  0.29297786     0.98900
N123        N  0.54521062  0.04808336  0.12865991    -0.06400
N124        N  0.54375833  0.08464178  0.10969540    -0.61800
N125        N  0.57808775  0.94980564  0.15650199    -0.05700
N126        N  0.59858882  0.91341054  0.15793006    -0.58500
N127        N  0.54742348  0.94983535  0.12828424    -0.07100
N128        N  0.54671254  0.91337129  0.10974967    -0.61400
N129        N  0.57676659  0.04792910  0.15598467    -0.06000
N130        N  0.59788379  0.08414520  0.15586411    -0.58600
Mn131      Mn  0.49546076  0.99823382  0.12838428     1.20200
Mn132      Mn  0.58078998  0.99858332  0.20239367     1.10100
Cl133      Cl  0.49839539  0.99676898  0.20663810    -0.86500
C134        C  0.57723996  0.10661027  0.12661767     0.95800
C135        C  0.57899987  0.89102994  0.12844191     0.95600
N136        N  0.45367009  0.04653048  0.86021863    -0.06700
N137        N  0.45370082  0.08347323  0.87783516    -0.58800
N138        N  0.42161647  0.94733554  0.83787954    -0.06400
N139        N  0.40147571  0.91069004  0.83717248    -0.60900
N140        N  0.45209573  0.94781011  0.86628250    -0.06000
N141        N  0.45298932  0.91128886  0.88558740    -0.58800
N142        N  0.42288494  0.04519601  0.83213775    -0.05600
N143        N  0.40074338  0.08075589  0.83059154    -0.61300
C144        C  0.42006709  0.10424335  0.85943354     0.95500
C145        C  0.42075517  0.88864152  0.86735529     0.95300
N146        N  0.44583730  0.93968933  0.71469274    -0.06900
N147        N  0.42902684  0.91283013  0.68826019    -0.59400
N148        N  0.42002117  0.03762532  0.73767087    -0.05000
N149        N  0.38526087  0.06026415  0.72764139    -0.60600
N150        N  0.44723616  0.03400438  0.70673432    -0.06900
N151        N  0.43016319  0.05354424  0.67471257    -0.59600
N152        N  0.41834677  0.94321591  0.74535917    -0.04600
N153        N  0.38389513  0.91845254  0.74118844    -0.60700
Mn154      Mn  0.42003143  0.99372781  0.78880063     1.18400
C155        C  0.39061385  0.89932413  0.70587955     0.97600
C156        C  0.39182303  0.07038791  0.68858698     0.98200
N157        N  0.55455121  0.94707835  0.86538037    -0.06900
N158        N  0.55470137  0.91136518  0.88599108    -0.63200
N159        N  0.58430223  0.04392459  0.82986421    -0.05700
N160        N  0.60441262  0.08035356  0.82529912    -0.63900
N161        N  0.55521765  0.04548235  0.85924579    -0.06400
N162        N  0.55506185  0.08316461  0.87531859    -0.63500
N163        N  0.58496855  0.94642756  0.83710454    -0.05300
N164        N  0.60682801  0.91075653  0.83825346    -0.64200
Mn165      Mn  0.50389634  0.99671356  0.86484510     1.10700
C166        C  0.58791336  0.88921659  0.86900331     0.98800
C167        C  0.58609696  0.10451256  0.85393025     0.98900
N168        N  0.55699206  0.03330961  0.70592892    -0.06400
N169        N  0.57442608  0.05218573  0.67368151    -0.61800
N170        N  0.58494612  0.94142807  0.74388173    -0.05700
N171        N  0.61931371  0.91706370  0.73835343    -0.58500
N172        N  0.55687294  0.93898755  0.71337018    -0.07100
N173        N  0.57323401  0.91340024  0.68571159    -0.61400
N174        N  0.58505747  0.03578486  0.73646244    -0.06000
N175        N  0.62078035  0.05675894  0.72596670    -0.58600
Mn176      Mn  0.50168046  0.98625977  0.70873378     1.20200
Mn177      Mn  0.58541492  0.99206055  0.78735839     1.10100
Cl178      Cl  0.50274416  0.99219817  0.78707277    -0.86500
C179        C  0.61400217  0.06721552  0.68709081     0.95800
C180        C  0.61194398  0.89939692  0.70236601     0.95600
N181        N  0.05196502  0.21500723  0.44853324    -0.06700
N182        N  0.06686501  0.18430153  0.42561755    -0.58800
N183        N  0.08567294  0.24104596  0.53916645    -0.06400
N184        N  0.12242041  0.22927020  0.55750179    -0.60900
N185        N  0.05622371  0.21033602  0.53944106    -0.06000
N186        N  0.07326310  0.17700365  0.55800163    -0.58800
N187        N  0.08073971  0.24621003  0.44820167    -0.05600
N188        N  0.11443428  0.23788882  0.42445427    -0.61300
C189        C  0.10549482  0.19952943  0.41014474     0.95500
C190        C  0.11433017  0.18968058  0.56970414     0.95300
N191        N  0.05544578  0.36989921  0.54569308    -0.06900
N192        N  0.06028687  0.39146746  0.57912476    -0.59400
N193        N  0.07964127  0.34388055  0.45074136    -0.05000
N194        N  0.10030963  0.34540281  0.41579679    -0.60600
N195        N  0.04987865  0.37370017  0.45266779    -0.06900
N196        N  0.04962359  0.39606672  0.41886849    -0.59600
N197        N  0.08477009  0.33967793  0.54408127    -0.04600
N198        N  0.11010996  0.33985379  0.57656251    -0.60700
Mn199      Mn  0.08340309  0.29324836  0.49570018     1.18400
C200        C  0.09472887  0.37255688  0.59789080     0.97600
C201        C  0.08158776  0.37821914  0.39624353     0.98200
N202        N  0.94690770  0.21195765  0.54358385    -0.06900
N203        N  0.93165507  0.17990123  0.56531780    -0.63200
N204        N  0.91511877  0.24917981  0.45491842    -0.05700
N205        N  0.88027905  0.24398333  0.43176382    -0.63900
N206        N  0.94242296  0.21720166  0.45223468    -0.06400
N207        N  0.92528048  0.18893051  0.42745654    -0.63500
N208        N  0.91923032  0.24369068  0.54613609    -0.05300
N209        N  0.88590959  0.23431531  0.57012182    -0.64200
Mn210      Mn  0.99922423  0.21225741  0.49591853     1.10700
C211        C  0.89389567  0.19474214  0.58226215     0.98800
C212        C  0.88666683  0.20668427  0.41449960     0.98900
N213        N  0.94773653  0.37520421  0.45765224    -0.06400
N214        N  0.94487093  0.39849705  0.42465679    -0.61800
N215        N  0.92158856  0.34093125  0.55076565    -0.05700
N216        N  0.89985130  0.33994708  0.58524001    -0.58500
N217        N  0.95287207  0.36960548  0.55130952    -0.07100
N218        N  0.95357224  0.38836033  0.58661013    -0.61400
N219        N  0.91700659  0.34607982  0.45770629    -0.06000
N220        N  0.89239060  0.34899792  0.42484378    -0.58600
Mn221      Mn  0.00148813  0.37383370  0.50194662     1.20200
Mn222      Mn  0.91754551  0.29533648  0.50245749     1.10100
Cl223      Cl  0.00052040  0.29306986  0.49915012    -0.86500
C224        C  0.90985810  0.38210543  0.40463736     0.95800
C225        C  0.91982147  0.36996077  0.60714147     0.95600
N226        N  0.05240524  0.61721015  0.44262166    -0.06700
N227        N  0.05201496  0.59994454  0.40660861    -0.58800
N228        N  0.08520227  0.63850345  0.53742981    -0.06400
N229        N  0.10714389  0.63670750  0.57179323    -0.60900
N230        N  0.05511067  0.60877336  0.53620297    -0.06000
N231        N  0.05580066  0.58633773  0.56992941    -0.58800
N232        N  0.08231604  0.64711732  0.44406822    -0.05600
N233        N  0.10290525  0.65080814  0.40919284    -0.61300
C234        C  0.08389269  0.62111785  0.38613495     0.95500
C235        C  0.08884072  0.60386505  0.59170199     0.95300
N236        N  0.05871898  0.76672098  0.54730961    -0.06900
N237        N  0.07429595  0.79355654  0.57434026    -0.59400
N238        N  0.08438458  0.74424222  0.45234839    -0.05000
N239        N  0.11735028  0.75420525  0.42806634    -0.60600
N240        N  0.05634993  0.77565442  0.45558586    -0.06900
N241        N  0.07107489  0.80814306  0.43402114    -0.59600
N242        N  0.08674741  0.73532764  0.54383438    -0.04600
N243        N  0.12047125  0.73948914  0.56868589    -0.60700
Mn244      Mn  0.08557439  0.69084336  0.49427248     1.18400
C245        C  0.11250821  0.77545894  0.58794768     0.97600
C246        C  0.10875343  0.79380370  0.41638326     0.98200
N247        N  0.95349306  0.60779863  0.53870627    -0.06900
N248        N  0.95399963  0.58459801  0.57197672    -0.63200
N249        N  0.92009016  0.64570508  0.44850688    -0.05700
N250        N  0.89513092  0.64747728  0.41583788    -0.63900
N251        N  0.94995125  0.61618185  0.44542854    -0.06400
N252        N  0.94598787  0.59714371  0.41046267    -0.63500
N253        N  0.92368296  0.63744301  0.54143700    -0.05300
N254        N  0.90317845  0.63505283  0.57635149    -0.64200
Mn255      Mn  0.00285706  0.61059618  0.49050635     1.10700
C256        C  0.92218545  0.60195304  0.59505527     0.98800
C257        C  0.91142644  0.61688614  0.39240175     0.98900
N258        N  0.94622509  0.77421361  0.45728207    -0.06400
N259        N  0.92998431  0.80499313  0.43421392    -0.61800
N260        N  0.92121329  0.73439773  0.54752112    -0.05700
N261        N  0.88690568  0.73941932  0.57123282    -0.58500
N262        N  0.94807130  0.76700124  0.54908840    -0.07100
N263        N  0.93087192  0.79549372  0.57358308    -0.61400
N264        N  0.91889205  0.74194415  0.45635359    -0.06000
N265        N  0.88501864  0.74941760  0.43251152    -0.58600
Mn266      Mn  0.00241171  0.77274647  0.50249166     1.20200
Mn267      Mn  0.92047542  0.68948751  0.49850798     1.10100
Cl268      Cl  0.00291062  0.69152388  0.49647727    -0.86500
C269        C  0.89191598  0.78845871  0.41850466     0.95800
C270        C  0.89283498  0.77724308  0.58770188     0.95600
C271        C  0.70109927  0.86740225  0.62761016    -0.28200
C272        C  0.73038534  0.84559987  0.65345820     0.01400
C273        C  0.71726100  0.83746382  0.69351409     0.29500
C274        C  0.67669997  0.85250775  0.70766490    -0.20000
C275        C  0.64793579  0.87557402  0.68250881    -0.29400
C276        C  0.65988282  0.88201793  0.64177728     0.43600
C277        C  0.77365870  0.82941664  0.63847528     0.04700
O278        O  0.74521585  0.81696701  0.71979464    -0.57900
H279        H  0.66851315  0.84754915  0.73920921     0.17700
O280        O  0.63317109  0.90493601  0.61639302    -0.64600
H281        H  0.71036855  0.87333124  0.59649258     0.16100
C282        C  0.78131301  0.78610530  0.63810989     0.28400
C283        C  0.82179699  0.77052406  0.62463043    -0.25500
C284        C  0.85558112  0.79719268  0.61002666    -0.24800
C285        C  0.84875486  0.84081582  0.61167257     0.39800
C286        C  0.80784625  0.85663767  0.62559588    -0.27200
O287        O  0.74876038  0.75846277  0.64981774    -0.59100
H288        H  0.82589540  0.73688064  0.62398327     0.15500
O289        O  0.88067462  0.86811336  0.59804720    -0.60600
H290        H  0.80270199  0.89015239  0.62614708     0.13900
H291        H  0.61345961  0.88412484  0.60340903     0.45800
H292        H  0.73123472  0.75303955  0.62503204     0.41200
H293        H  0.89818644  0.87547794  0.62232339     0.44600
H294        H  0.73117627  0.78932863  0.72498438     0.36100
C295        C  0.21591134  0.78506322  0.65163853    -0.28200
C296        C  0.22843644  0.82677185  0.64445437     0.01400
C297        C  0.19877633  0.85336713  0.62342831     0.29500
C298        C  0.15866283  0.83746771  0.60791191    -0.20000
C299        C  0.14752801  0.79506116  0.61313152    -0.29400
C300        C  0.17593945  0.76929421  0.63644315     0.43600
C301        C  0.27242134  0.84193244  0.65914099     0.04700
O302        O  0.20921313  0.89467724  0.61695585    -0.57900
H303        H  0.13758190  0.85771704  0.58983864     0.17700
O304        O  0.16595633  0.72787929  0.64290925    -0.64600
H305        H  0.23794625  0.76415468  0.66798742     0.16100
C306        C  0.28387368  0.83828235  0.70021176     0.28400
C307        C  0.32431771  0.85431554  0.71402190    -0.25500
C308        C  0.35449083  0.87405799  0.68757291    -0.24800
C309        C  0.34433382  0.87558281  0.64606092     0.39800
C310        C  0.30339198  0.85983570  0.63216248    -0.27200
O311        O  0.25433193  0.82182859  0.72760823    -0.59100
H312        H  0.33123477  0.85292929  0.74613854     0.15500
O313        O  0.37247847  0.89500305  0.61930475    -0.60600
H314        H  0.29546011  0.86222173  0.60031284     0.13900
H315        H  0.14612807  0.72736716  0.66675039     0.45800
H316        H  0.26622643  0.79387621  0.73502507     0.41200
H317        H  0.39208932  0.87251249  0.60942862     0.44600
H318        H  0.20048146  0.90902371  0.64210453     0.36100
C319        C  0.73171302  0.07280324  0.65088466    -0.28200
C320        C  0.73283045  0.11207269  0.63177063     0.01400
C321        C  0.69242677  0.13324999  0.62430394     0.29500
C322        C  0.65226521  0.11676123  0.63934007    -0.20000
C323        C  0.65210528  0.07924709  0.66155379    -0.29400
C324        C  0.69186960  0.05630408  0.66549802     0.43600
C325        C  0.77657357  0.13148020  0.62227829     0.04700
O326        O  0.69208679  0.16994646  0.60234876    -0.57900
H327        H  0.62188447  0.13442289  0.63565004     0.17700
O328        O  0.69259721  0.01871354  0.68594402    -0.64600
H329        H  0.76220512  0.05576560  0.65635171     0.16100
C330        C  0.78751607  0.17145290  0.63681326     0.28400
C331        C  0.82773556  0.19025017  0.62600857    -0.25500
C332        C  0.85839450  0.16947994  0.60152073    -0.24800
C333        C  0.84932695  0.12802799  0.58995522     0.39800
C334        C  0.80852054  0.10939853  0.60019136    -0.27200
O335        O  0.75886109  0.19275802  0.66117586    -0.59100
H336        H  0.83430929  0.22197468  0.63564239     0.15500
O337        O  0.87829666  0.10672460  0.56593999    -0.60600
H338        H  0.80118604  0.07815529  0.58967108     0.13900
H339        H  0.68143230  0.99786466  0.66641642     0.45800
H340        H  0.76495051  0.18219333  0.68888393     0.41200
H341        H  0.89699590  0.09023101  0.58490818     0.44600
H342        H  0.68180384  0.19177987  0.62115384     0.36100
C343        C  0.30188584  0.08211343  0.60854178    -0.28200
C344        C  0.27345884  0.11079786  0.62734771     0.01400
C345        C  0.28727384  0.12926667  0.66369568     0.29500
C346        C  0.32742275  0.11761081  0.68167904    -0.20000
C347        C  0.35522319  0.08799941  0.66381224    -0.29400
C348        C  0.34247643  0.07055702  0.62659729     0.43600
C349        C  0.23005335  0.12287209  0.60897548     0.04700
O350        O  0.26141969  0.15854219  0.68226327    -0.57900
H351        H  0.33638743  0.13105803  0.71046875     0.17700
O352        O  0.36812598  0.04065737  0.60874244    -0.64600
H353        H  0.29198363  0.06769056  0.58048296     0.16100
C354        C  0.22820540  0.14142895  0.57030151     0.28400
C355        C  0.18916931  0.16099920  0.55713427    -0.25500
C356        C  0.15109785  0.16155542  0.58154526    -0.24800
C357        C  0.15156825  0.13985584  0.61863654     0.39800
C358        C  0.19093838  0.12083451  0.63221969    -0.27200
O359        O  0.26543594  0.14396552  0.54667592    -0.59100
H360        H  0.18920586  0.17741086  0.52831710     0.15500
O361        O  0.11518504  0.14028598  0.64337240    -0.60600
H362        H  0.19159725  0.10624635  0.66189447     0.13900
H363        H  0.35753615  0.01359773  0.62015041     0.45800
H364        H  0.26209213  0.12125649  0.52672800     0.41200
H365        H  0.09608908  0.11707968  0.63390007     0.44600
H366        H  0.26853075  0.18541492  0.66844517     0.36100
C367        C  0.80803812  0.86974301  0.38155509    -0.28200
C368        C  0.77651971  0.84362210  0.36276053     0.01400
C369        C  0.78628165  0.80081894  0.35892176     0.29500
C370        C  0.82576587  0.78467464  0.37452515    -0.20000
C371        C  0.85651007  0.81007970  0.39492763    -0.29400
C372        C  0.84788636  0.85326146  0.39749995     0.43600
C373        C  0.73382497  0.86054015  0.34645625     0.04700
O374        O  0.75663221  0.77396523  0.34121072    -0.57900
H375        H  0.83130731  0.75135523  0.37223292     0.17700
O376        O  0.87653491  0.87910222  0.41763681    -0.64600
H377        H  0.80154687  0.90289344  0.38422764     0.16100
C378        C  0.70375222  0.88299620  0.37056626     0.28400
C379        C  0.66326697  0.89743447  0.35412161    -0.25500
C380        C  0.65237731  0.89004192  0.31353111    -0.24800
C381        C  0.68211018  0.86660122  0.28994998     0.39800
C382        C  0.72212899  0.85224669  0.30634576    -0.27200
O383        O  0.71315592  0.89009298  0.41042670    -0.59100
H384        H  0.64127519  0.91576992  0.37266301     0.15500
O385        O  0.67218801  0.85729353  0.25060008    -0.60600
H386        H  0.74450195  0.83487609  0.28728463     0.13900
H387        H  0.89863313  0.88808755  0.39717496     0.45800
H388        H  0.72360989  0.91950583  0.41141964     0.41200
H389        H  0.69098656  0.87626710  0.23396812     0.44600
H390        H  0.73542504  0.76611345  0.36286933     0.36100
C391        C  0.20146717  0.87210355  0.39977616    -0.28200
C392        C  0.22527117  0.85308236  0.36835916     0.01400
C393        C  0.20556421  0.81875332  0.34859578     0.29500
C394        C  0.16555876  0.80167016  0.36275587    -0.20000
C395        C  0.14312106  0.81927663  0.39549442    -0.29400
C396        C  0.16043806  0.85587116  0.41289444     0.43600
C397        C  0.27085189  0.86815247  0.35702363     0.04700
O398        O  0.22568646  0.80083758  0.31600481    -0.57900
H399        H  0.15273359  0.77353026  0.34894183     0.17700
O400        O  0.13983252  0.87364637  0.44527770    -0.64600
H401        H  0.21561012  0.89847081  0.41556585     0.16100
C402        C  0.28012662  0.91109043  0.35115704     0.28400
C403        C  0.32217189  0.92399330  0.33790699    -0.25500
C404        C  0.35538943  0.89496472  0.32892710    -0.24800
C405        C  0.34716171  0.85231306  0.33632046     0.39800
C406        C  0.30544753  0.83922180  0.35079844    -0.27200
O407        O  0.24770828  0.94062958  0.35590909    -0.59100
H408        H  0.32811989  0.95681550  0.33204914     0.15500
O409        O  0.37852688  0.82300934  0.32707245    -0.60600
H410        H  0.29971593  0.80613356  0.35599141     0.13900
H411        H  0.11794417  0.89334076  0.43337038     0.45800
H412        H  0.23250221  0.94254786  0.32937093     0.41200
H413        H  0.39738818  0.82058141  0.35154301     0.44600
H414        H  0.21717457  0.81861282  0.29252457     0.36100
C415        C  0.80330227  0.12666506  0.37562381    -0.28200
C416        C  0.76971440  0.15353712  0.36136199     0.01400
C417        C  0.77696954  0.19691608  0.36136042     0.29500
C418        C  0.81677756  0.21300761  0.37616666    -0.20000
C419        C  0.85011215  0.18660693  0.39169532    -0.29400
C420        C  0.84351920  0.14294698  0.39059641     0.43600
C421        C  0.72755972  0.13675382  0.34500678     0.04700
O422        O  0.74408738  0.22391760  0.34916993    -0.57900
H423        H  0.82077656  0.24670647  0.37687526     0.17700
O424        O  0.87474561  0.11613391  0.40614325    -0.64600
H425        H  0.79815735  0.09310743  0.37540124     0.16100
C426        C  0.71713559  0.14304890  0.30407439     0.28400
C427        C  0.67691004  0.12841008  0.28872452    -0.25500
C428        C  0.64629556  0.10696913  0.31343364    -0.24800
C429        C  0.65625881  0.10132556  0.35473156     0.39800
C430        C  0.69674480  0.11632778  0.37029923    -0.27200
O431        O  0.74730092  0.16146660  0.27839601    -0.59100
H432        H  0.67039644  0.13256736  0.25673740     0.15500
O433        O  0.62768566  0.07994532  0.37969795    -0.60600
H434        H  0.70428265  0.11173397  0.40202762     0.13900
H435        H  0.89382405  0.10888184  0.38294971     0.45800
H436        H  0.73388401  0.18848146  0.26992534     0.41200
H437        H  0.63814126  0.05056042  0.37962603     0.44600
H438        H  0.75542166  0.23789132  0.32437044     0.36100
C439        C  0.19297362  0.11689260  0.39278158    -0.28200
C440        C  0.22227215  0.13869957  0.36697842     0.01400
C441        C  0.20872410  0.17740924  0.35042879     0.29500
C442        C  0.16851877  0.19532730  0.36245919    -0.20000
C443        C  0.14060978  0.17485117  0.39027954    -0.29400
C444        C  0.15232009  0.13457618  0.40429537     0.43600
C445        C  0.26613976  0.12030656  0.35638110     0.04700
O446        O  0.23414000  0.19742810  0.32176114    -0.57900
H447        H  0.15977612  0.22611165  0.35097409     0.17700
O448        O  0.12623217  0.11377031  0.43184362    -0.64600
H449        H  0.20234185  0.08665128  0.40513846     0.16100
C450        C  0.30640999  0.14270494  0.36105829     0.28400
C451        C  0.34656139  0.12619548  0.34652430    -0.25500
C452        C  0.34714145  0.08737269  0.32725756    -0.24800
C453        C  0.30719358  0.06421394  0.32468169     0.39800
C454        C  0.26751287  0.08033338  0.33971373    -0.27200
O455        O  0.30670206  0.18127812  0.37873395    -0.59100
H456        H  0.37664995  0.14470790  0.34833030     0.15500
O457        O  0.30633395  0.02612968  0.30606303    -0.60600
H458        H  0.23719778  0.06238759  0.33623953     0.13900
H459        H  0.10645101  0.09575696  0.41552163     0.45800
H460        H  0.30686781  0.17549397  0.40817812     0.41200
H461        H  0.29251038  0.03131182  0.27927809     0.44600
H462        H  0.24506043  0.22336954  0.33464496     0.36100
C463        C  0.59123852  0.68750286  0.08230787    -0.28200
C464        C  0.61573037  0.71486691  0.10693307     0.01400
C465        C  0.65612417  0.70073823  0.12378454     0.29500
C466        C  0.67241235  0.66126305  0.11423249    -0.20000
C467        C  0.64964887  0.63524287  0.08739252    -0.29400
C468        C  0.60804842  0.64797689  0.07230354     0.43600
C469        C  0.60141194  0.75906888  0.11247831     0.04700
O470        O  0.68169178  0.72636411  0.14736387    -0.57900
H471        H  0.70475075  0.65213569  0.12564791     0.17700
O472        O  0.58589768  0.62416946  0.04454816    -0.64600
H473        H  0.55994072  0.69751694  0.06935246     0.16100
C474        C  0.59063877  0.78510867  0.07911895     0.28400
C475        C  0.58213491  0.82780288  0.08474229    -0.25500
C476        C  0.58581600  0.84556918  0.12312780    -0.24800
C477        C  0.59536384  0.81938581  0.15655804     0.39800
C478        C  0.60244962  0.77660325  0.15114336    -0.27200
O479        O  0.59008300  0.76962009  0.04067952    -0.59100
H480        H  0.57436127  0.84739314  0.05879149     0.15500
O481        O  0.59788665  0.83522770  0.19479377    -0.60600
H482        H  0.60973863  0.75714875  0.17730430     0.13900
H483        H  0.56385006  0.60783738  0.06041508     0.45800
H484        H  0.62128032  0.77115947  0.03138140     0.41200
H485        H  0.56708299  0.83430812  0.20521662     0.44600
H486        H  0.70024591  0.74271187  0.12817655     0.36100
C487        C  0.59095004  0.30710613  0.07822339    -0.28200
C488        C  0.60459093  0.28520567  0.11306407     0.01400
C489        C  0.63182532  0.30572011  0.14139172     0.29500
C490        C  0.64945061  0.34522833  0.13228348    -0.20000
C491        C  0.63891409  0.36546939  0.09582134    -0.29400
C492        C  0.60772192  0.34714087  0.06961293     0.43600
C493        C  0.59643242  0.23943675  0.11646846     0.04700
O494        O  0.64413820  0.28606857  0.17667684    -0.57900
H495        H  0.67368279  0.35887514  0.15250101     0.17700
O496        O  0.59805960  0.36552835  0.03304188    -0.64600
H497        H  0.57027578  0.29184593  0.05596799     0.16100
C498        C  0.55384608  0.22187925  0.11156893     0.28400
C499        C  0.54815774  0.17833415  0.11306532    -0.25500
C500        C  0.58446271  0.15185143  0.12039461    -0.24800
C501        C  0.62699090  0.16935366  0.12499938     0.39800
C502        C  0.63276492  0.21266935  0.12266379    -0.27200
O503        O  0.51750532  0.24697911  0.10635611    -0.59100
H504        H  0.51506234  0.16538109  0.11007739     0.15500
O505        O  0.66323029  0.14438260  0.13177216    -0.60600
H506        H  0.66597450  0.22541207  0.12541575     0.13900
H507        H  0.57201825  0.38358478  0.03818976     0.45800
H508        H  0.50530734  0.25067804  0.13386634     0.41200
H509        H  0.67291872  0.13546223  0.10461811     0.44600
H510        H  0.61835716  0.28905534  0.19493187     0.36100
C511        C  0.64821110  0.69238888  0.85121623    -0.28200
C512        C  0.62068726  0.71086567  0.88022852     0.01400
C513        C  0.60452661  0.68571432  0.91234670     0.29500
C514        C  0.61903879  0.64429182  0.91687304    -0.20000
C515        C  0.65051902  0.62772512  0.89038876    -0.29400
C516        C  0.66371091  0.65143820  0.85651900     0.43600
C517        C  0.61233970  0.75687432  0.87861188     0.04700
O518        O  0.57743560  0.70216304  0.94130901    -0.57900
H519        H  0.60921567  0.62665445  0.94354503     0.17700
O520        O  0.69452569  0.63603478  0.83022668    -0.64600
H521        H  0.65974657  0.71051931  0.82547691     0.16100
C522        C  0.64760732  0.78553403  0.87265087     0.28400
C523        C  0.63927367  0.82862121  0.87101990    -0.25500
C524        C  0.59624510  0.84414766  0.87606199    -0.24800
C525        C  0.56120474  0.81577539  0.88320885     0.39800
C526        C  0.56925548  0.77258511  0.88390274    -0.27200
O527        O  0.69058485  0.77182254  0.86978856    -0.59100
H528        H  0.66663420  0.85003206  0.86560873     0.15500
O529        O  0.51850935  0.82971614  0.88692188    -0.60600
H530        H  0.54152437  0.75131049  0.88790565     0.13900
H531        H  0.67699554  0.62180892  0.80903371     0.45800
H532        H  0.69920431  0.77675510  0.84124480     0.41200
H533        H  0.51368662  0.83239456  0.91636959     0.44600
H534        H  0.59775275  0.71345554  0.96212794     0.36100
C535        C  0.59682819  0.31119365  0.88361098    -0.28200
C536        C  0.62388461  0.28090377  0.86569214     0.01400
C537        C  0.66785472  0.29141111  0.85536653     0.29500
C538        C  0.68527578  0.33017115  0.86620093    -0.18800
C539        C  0.65963261  0.35888690  0.88764513    -0.29400
C540        C  0.61438524  0.35022852  0.89438851     0.43600
C541        C  0.60839891  0.23708064  0.86190381     0.04700
O542        O  0.69521666  0.26275714  0.83765110    -0.57900
H543        H  0.72013427  0.33642231  0.86071143     0.17700
O544        O  0.58842677  0.37753752  0.91538474    -0.64600
H545        H  0.56275476  0.30370152  0.89121836     0.16100
C546        C  0.59549456  0.21367480  0.89627933     0.28400
C547        C  0.58753808  0.17059306  0.89322495    -0.25500
C548        C  0.59304941  0.15019776  0.85632044    -0.24800
C549        C  0.60459867  0.17393358  0.82171168     0.39800
C550        C  0.61167933  0.21703536  0.82464056    -0.27200
O551        O  0.59379610  0.23201038  0.93348090    -0.59100
H552        H  0.57856189  0.15285486  0.92006619     0.15500
O553        O  0.60810109  0.15553109  0.78465063    -0.60600
H554        H  0.62112818  0.23471601  0.79789384     0.13900
H555        H  0.57457926  0.39573870  0.89449751     0.45800
H556        H  0.56180076  0.23645072  0.93881903     0.41200
H557        H  0.64030767  0.15090487  0.78068267     0.44600
H558        H  0.70927275  0.24721737  0.86038997     0.36100
C559        C  0.89928928  0.61624621  0.70564329    -0.28200
C560        C  0.90416829  0.57547278  0.72083426     0.01400
C561        C  0.91627096  0.54308059  0.69459505     0.29500
C562        C  0.92261575  0.55196206  0.65343185    -0.20000
C563        C  0.91606955  0.59264529  0.63820537    -0.29400
C564        C  0.90455934  0.62492758  0.66477699     0.43600
C565        C  0.89393346  0.56803644  0.76380979     0.04700
O566        O  0.91918068  0.50253109  0.70837577    -0.57900
H567        H  0.93147480  0.52689054  0.63327266     0.17700
O568        O  0.89984925  0.66548025  0.65144083    -0.64600
H569        H  0.89071192  0.64157454  0.72563684     0.16100
C570        C  0.92508063  0.55044859  0.79065371     0.28400
C571        C  0.91549608  0.54830098  0.83195614    -0.25500
C572        C  0.87574368  0.56471214  0.84696246    -0.24800
C573        C  0.84436981  0.58172148  0.81986357     0.39800
C574        C  0.85347141  0.58285209  0.77869953    -0.27200
O575        O  0.96501376  0.53599729  0.77682785    -0.59100
H576        H  0.93971418  0.53459863  0.85235185     0.15500
O577        O  0.80414412  0.59615586  0.83297500    -0.60600
H578        H  0.82904363  0.59614841  0.75823868     0.13900
H579        H  0.86742459  0.66959814  0.64819690     0.45800
H580        H  0.98812889  0.55137290  0.79199613     0.41200
H581        H  0.80785258  0.62689297  0.83518397     0.44600
H582        H  0.95093834  0.49494389  0.70601237     0.36100
C583        C  0.91299696  0.58803284  0.19835126    -0.28200
C584        C  0.87608246  0.59708291  0.22241804     0.01400
C585        C  0.83458990  0.60372578  0.20368616     0.29500
C586        C  0.83051713  0.60048087  0.16174688    -0.20000
C587        C  0.86720394  0.58970780  0.13804617    -0.29400
C588        C  0.90882130  0.58415024  0.15658790     0.43600
C589        C  0.88174296  0.60018530  0.26679854     0.04700
O590        O  0.79754730  0.61205927  0.22613695    -0.57900
H591        H  0.79810871  0.60439950  0.14800822     0.17700
O592        O  0.94544148  0.57396951  0.13430299    -0.64600
H593        H  0.94522536  0.58372921  0.21208742     0.16100
C594        C  0.90500381  0.56931946  0.28896054     0.28400
C595        C  0.91291022  0.57448793  0.33018283    -0.25500
C596        C  0.89813881  0.61028668  0.35003806    -0.24800
C597        C  0.87364305  0.64058152  0.32819051     0.39800
C598        C  0.86574886  0.63539864  0.28695687    -0.27200
O599        O  0.91943259  0.53358993  0.27072585    -0.59100
H600        H  0.93133974  0.55061009  0.34647688     0.15500
O601        O  0.85844026  0.67606358  0.34636404    -0.60600
H602        H  0.84838998  0.65979647  0.27041724     0.13900
H603        H  0.95764968  0.60108011  0.12451201     0.45800
H604        H  0.95224016  0.53550350  0.27057462     0.41200
H605        H  0.88219243  0.69720594  0.34221409     0.44600
H606        H  0.78524390  0.58426775  0.23375481     0.36100
C607        C  0.86651106  0.35588837  0.80028715    -0.28200
C608        C  0.89486057  0.38307594  0.77887014     0.01400
C609        C  0.91554509  0.41621623  0.79930480     0.29500
C610        C  0.90787422  0.42177720  0.84042958    -0.20000
C611        C  0.87914231  0.39505022  0.86191667    -0.29400
C612        C  0.85860413  0.36160282  0.84152943     0.43600
C613        C  0.90129180  0.37803483  0.73487734     0.04700
O614        O  0.94066697  0.44515136  0.77859302    -0.57900
H615        H  0.92333321  0.44823260  0.85508802     0.17700
O616        O  0.82974113  0.33511824  0.86113839    -0.64600
H617        H  0.85016907  0.33036696  0.78488011     0.16100
C618        C  0.94421272  0.37623942  0.71826076     0.28400
C619        C  0.94962063  0.37520186  0.67636869    -0.25500
C620        C  0.91269308  0.37448262  0.65068061    -0.24800
C621        C  0.86975134  0.37429610  0.66723039     0.39800
C622        C  0.86425193  0.37647977  0.70910039    -0.27200
O623        O  0.98075148  0.37307241  0.74293492    -0.59100
H624        H  0.98282543  0.37345732  0.66400634     0.15500
O625        O  0.83304553  0.37220404  0.64276927    -0.60600
H626        H  0.83102347  0.37750883  0.72145015     0.13900
H627        H  0.84847656  0.31228330  0.87224638     0.45800
H628        H  0.00059022  0.39658131  0.73502746     0.41200
H629        H  0.82644518  0.40161330  0.63511459     0.44600
H630        H  0.97076787  0.44355310  0.79057726     0.36100
C631        C  0.85485180  0.38197979  0.30183633    -0.28200
C632        C  0.88760548  0.40154770  0.27817031     0.01400
C633        C  0.92548704  0.41828477  0.29717347     0.29500
C634        C  0.93078595  0.41408304  0.33888662    -0.20000
C635        C  0.89932443  0.39231595  0.36219465    -0.29400
C636        C  0.86056671  0.37706686  0.34348710     0.43600
C637        C  0.88164910  0.40497268  0.23388045     0.04700
O638        O  0.95835647  0.43737387  0.27506100    -0.57900
H639        H  0.96082818  0.42607290  0.35260120     0.17700
O640        O  0.82849172  0.35651318  0.36536977    -0.64600
H641        H  0.82479335  0.37022279  0.28796450     0.16100
C642        C  0.86993474  0.37003976  0.21041648     0.28400
C643        C  0.86373238  0.37476510  0.16867519    -0.25500
C644        C  0.86966016  0.41389199  0.14992909    -0.24800
C645        C  0.88153064  0.44862896  0.17341361     0.39800
C646        C  0.88711838  0.44399698  0.21491878    -0.27200
O647        O  0.86609101  0.33101825  0.22777905    -0.59100
H648        H  0.85464835  0.34778532  0.15091430     0.15500
O649        O  0.88615387  0.48767196  0.15638872    -0.60600
H650        H  0.89483478  0.47129921  0.23248156     0.13900
H651        H  0.80878351  0.37883190  0.37550009     0.45800
H652        H  0.83389051  0.32452348  0.22753415     0.41200
H653        H  0.85637965  0.50058628  0.15840125     0.44600
H654        H  0.98301949  0.41698749  0.27490628     0.36100
C655        C  0.35605909  0.69523457  0.85499934    -0.28200
C656        C  0.39243032  0.70971499  0.87754503     0.01400
C657        C  0.41365146  0.68180753  0.90465604     0.29500
C658        C  0.39611754  0.64154020  0.91130034    -0.20000
C659        C  0.35745212  0.62867338  0.89116078    -0.29400
C660        C  0.33881595  0.65509798  0.86142864     0.43600
C661        C  0.40456428  0.75492223  0.87517829     0.04700
O662        O  0.44983864  0.69441869  0.92660092    -0.57900
H663        H  0.41046026  0.62187127  0.93473762     0.17700
O664        O  0.30102626  0.64346261  0.84121665    -0.64600
H665        H  0.33888212  0.71608073  0.83429323     0.16100
C666        C  0.40942049  0.77544711  0.83757476     0.28400
C667        C  0.41483102  0.81894779  0.83580377    -0.25500
C668        C  0.41602054  0.84276108  0.87113070    -0.24800
C669        C  0.41283408  0.82233378  0.90879732     0.39800
C670        C  0.40688989  0.77874926  0.91065730    -0.27200
O671        O  0.40994794  0.75303956  0.80246761    -0.59100
H672        H  0.41834473  0.83413663  0.80655656     0.15500
O673        O  0.41423120  0.84475234  0.94382228    -0.60600
H674        H  0.40250682  0.76375313  0.93986833     0.13900
H675        H  0.31115804  0.62404141  0.82005632     0.45800
H676        H  0.38257830  0.76111818  0.78768486     0.41200
H677        H  0.38289638  0.85169346  0.94974530     0.44600
H678        H  0.47564517  0.69011206  0.90863115     0.36100
C679        C  0.40079182  0.30380711  0.90517550    -0.28200
C680        C  0.38120604  0.28094863  0.87376719     0.01400
C681        C  0.34736226  0.30002610  0.85049764     0.29500
C682        C  0.33048555  0.33902080  0.86159089    -0.20000
C683        C  0.34814801  0.36037110  0.89470741    -0.29400
C684        C  0.38489521  0.34344157  0.91535107     0.43600
C685        C  0.39215966  0.23578076  0.86909264     0.04700
O686        O  0.32881937  0.27977364  0.81828212    -0.57900
H687        H  0.30203780  0.35164610  0.84557022     0.17700
O688        O  0.40194574  0.36296488  0.94864138    -0.64600
H689        H  0.42634232  0.28975329  0.92387091     0.16100
C690        C  0.43638970  0.22138043  0.86873252     0.28400
C691        C  0.44514716  0.17827245  0.86695550    -0.25500
C692        C  0.41030698  0.14908294  0.86493979    -0.24800
C693        C  0.36627060  0.16339454  0.86535572     0.39800
C694        C  0.35748131  0.20624939  0.86775815    -0.27200
O695        O  0.47112059  0.24926788  0.86805585    -0.59100
H696        H  0.47926610  0.16774848  0.86584687     0.15500
O697        O  0.33149978  0.13565679  0.86387340    -0.60600
H698        H  0.32326561  0.21637254  0.86923339     0.13900
H699        H  0.42791959  0.37900737  0.93856239     0.45800
H700        H  0.48647657  0.24560760  0.89438089     0.41200
H701        H  0.32529313  0.12807738  0.89241804     0.44600
H702        H  0.34791812  0.28722743  0.79493778     0.36100
C703        C  0.36612311  0.77990479  0.12929255    -0.28200
C704        C  0.40262309  0.75451268  0.12013962     0.01400
C705        C  0.44464129  0.77331215  0.11492286     0.29500
C706        C  0.44935578  0.81685790  0.11850589    -0.20000
C707        C  0.41266444  0.84198073  0.12802968    -0.29400
C708        C  0.37096697  0.82307114  0.13363280     0.43600
C709        C  0.39478040  0.70922123  0.11322425     0.04700
O710        O  0.48114941  0.74948493  0.10643338    -0.57900
H711        H  0.48187058  0.83088475  0.11465781     0.17700
O712        O  0.33442559  0.84663325  0.14260523    -0.64600
H713        H  0.33331038  0.76631235  0.13222368     0.16100
C714        C  0.36983383  0.68508002  0.14100729     0.28400
C715        C  0.35209610  0.64640333  0.12947253    -0.25500
C716        C  0.35972611  0.63103752  0.09074261    -0.24800
C717        C  0.38838142  0.65300722  0.06447413     0.39800
C718        C  0.40559248  0.69196013  0.07572206    -0.27200
O719        O  0.36140598  0.69988877  0.17895482    -0.59100
H720        H  0.33010901  0.62967930  0.14989636     0.15500
O721        O  0.39555821  0.63898767  0.02606268    -0.60600
H722        H  0.42439414  0.71011982  0.05383359     0.13900
H723        H  0.32291917  0.85666623  0.11615949     0.45800
H724        H  0.32922223  0.70621112  0.17942332     0.41200
H725        H  0.42313837  0.62227039  0.02786689     0.44600
H726        H  0.49401020  0.74183330  0.13307732     0.36100
C727        C  0.33752687  0.29507534  0.14034030    -0.28200
C728        C  0.38057536  0.28504185  0.12776245     0.01400
C729        C  0.40619708  0.31619643  0.10813144     0.29500
C730        C  0.38740209  0.35525464  0.09845347    -0.20000
C731        C  0.34297076  0.36362589  0.10784608    -0.29400
C732        C  0.31881893  0.33389546  0.13076712     0.43600
C733        C  0.39551836  0.24071052  0.13134176     0.04700
O734        O  0.44870403  0.30796200  0.09616001    -0.57900
H735        H  0.40647603  0.37754179  0.08069206     0.17700
O736        O  0.27543975  0.34104748  0.14097342    -0.64600
H737        H  0.31707148  0.27168060  0.15525875     0.16100
C738        C  0.39269587  0.21872144  0.16834514     0.28400
C739        C  0.39933356  0.17528443  0.16972572    -0.25500
C740        C  0.40914341  0.15289375  0.13458245    -0.24800
C741        C  0.41396471  0.17515762  0.09787082     0.39800
C742        C  0.40704118  0.21862172  0.09643155    -0.27200
O743        O  0.38408074  0.23964522  0.20340592    -0.59100
H744        H  0.39675500  0.15906192  0.19852615     0.15500
O745        O  0.42394735  0.15461786  0.06295901    -0.60600
H746        H  0.40883528  0.23483088  0.06757880     0.13900
H747        H  0.27675109  0.35406817  0.16795811     0.45800
H748        H  0.35356533  0.23127378  0.21127232     0.41200
H749        H  0.39485562  0.14691066  0.05105675     0.44600
H750        H  0.46794811  0.32199343  0.11623854     0.36100
C751        C  0.07855030  0.59053498  0.78996851    -0.28200
C752        C  0.11369420  0.58253070  0.76338985     0.01400
C753        C  0.15624208  0.57418252  0.77929076     0.29500
C754        C  0.16351525  0.57550357  0.82076721    -0.20000
C755        C  0.12840063  0.58290304  0.84718692    -0.29400
C756        C  0.08549314  0.58976390  0.83178765     0.43600
C757        C  0.10703734  0.58589532  0.71918113     0.04700
O758        O  0.19096313  0.56433766  0.75449769    -0.57900
H759        H  0.19641495  0.56891040  0.83244867     0.17700
O760        O  0.05036838  0.59591939  0.85726909    -0.64600
H761        H  0.04599750  0.59817661  0.77824230     0.16100
C762        C  0.07193878  0.56542650  0.69916715     0.28400
C763        C  0.06694042  0.57039236  0.65725982    -0.25500
C764        C  0.09700880  0.59506932  0.63490528    -0.24800
C765        C  0.13265439  0.61441802  0.65502053     0.39800
C766        C  0.13680665  0.61048399  0.69668735    -0.27200
O767        O  0.04207211  0.54129742  0.72035145    -0.59100
H768        H  0.03902271  0.55553954  0.64246669     0.15500
O769        O  0.16334644  0.63805314  0.63442822    -0.60600
H770        H  0.16348659  0.62712551  0.71157382     0.13900
H771        H  0.05133090  0.62608262  0.86388088     0.45800
H772        H  0.04484311  0.51264897  0.70952760     0.41200
H773        H  0.18671180  0.61806257  0.62637492     0.44600
H774        H  0.18921335  0.53358282  0.75127113     0.36100
C775        C  0.11149717  0.64953152  0.27786745    -0.28200
C776        C  0.09839510  0.61323857  0.25767889     0.01400
C777        C  0.08118469  0.57910785  0.27999486     0.29500
C778        C  0.07705020  0.58185644  0.32196969    -0.20000
C779        C  0.09043883  0.61814430  0.34218030    -0.29400
C780        C  0.10775672  0.65219632  0.31969245     0.43600
C781        C  0.10641881  0.61032875  0.21383953     0.04700
O782        O  0.07097026  0.54216262  0.26133872    -0.57900
H783        H  0.06390618  0.55532459  0.33877526     0.17700
O784        O  0.12091558  0.68841897  0.33809567    -0.64600
H785        H  0.12492504  0.67594947  0.26106456     0.16100
C786        C  0.07270705  0.59835448  0.18683083     0.28400
C787        C  0.08275514  0.59185742  0.14623977    -0.25500
C788        C  0.12593707  0.59862190  0.13182254    -0.24800
C789        C  0.15900296  0.61319175  0.15837554     0.39800
C790        C  0.14908018  0.61881592  0.19903570    -0.27200
O791        O  0.02996165  0.59284268  0.19982847    -0.59100
H792        H  0.05681978  0.58121459  0.12606044     0.15500
O793        O  0.20161002  0.62022332  0.14544032    -0.60600
H794        H  0.17530176  0.62842209  0.21939578     0.13900
H795        H  0.09410621  0.70636260  0.33843974     0.45800
H796        H  0.01564911  0.62042066  0.19579760     0.41200
H797        H  0.21752219  0.59352400  0.15057707     0.44600
H798        H  0.03837965  0.53915399  0.26351121     0.36100
C799        C  0.15741044  0.37963395  0.78778467    -0.28200
C800        C  0.12374114  0.40084370  0.76677916     0.01400
C801        C  0.09360282  0.42566609  0.78822332     0.29500
C802        C  0.09787970  0.42943896  0.83007279    -0.20000
C803        C  0.13216098  0.40898011  0.85104967    -0.29400
C804        C  0.16173470  0.38334144  0.82953729     0.43600
C805        C  0.11902741  0.39455974  0.72289096     0.04700
O806        O  0.05895905  0.44500605  0.76872360    -0.57900
H807        H  0.07451268  0.44888397  0.84602458     0.17700
O808        O  0.19593553  0.36285889  0.84858886    -0.64600
H809        H  0.18069013  0.36024925  0.77163285     0.16100
C810        C  0.11726985  0.42851338  0.69542245     0.28400
C811        C  0.10984153  0.42116363  0.65437329    -0.25500
C812        C  0.10628139  0.38010787  0.64019020    -0.24800
C813        C  0.11018459  0.34621568  0.66738856     0.39800
C814        C  0.11603338  0.35360342  0.70842750    -0.27200
O815        O  0.12288044  0.46878772  0.70838908    -0.59100
H816        H  0.10707949  0.44746560  0.63359111     0.15500
O817        O  0.10509265  0.30580902  0.65458930    -0.60600
H818        H  0.11724679  0.32720018  0.72921104     0.13900
H819        H  0.18403650  0.33470197  0.85542935     0.45800
H820        H  0.15492725  0.47486607  0.70485592     0.41200
H821        H  0.13562020  0.29555980  0.64989448     0.44600
H822        H  0.06344876  0.47540955  0.77291030     0.36100
C823        C  0.15251378  0.40582408  0.21124001    -0.28200
C824        C  0.10882629  0.40644459  0.22564718     0.01400
C825        C  0.07366305  0.41346505  0.19829934     0.29500
C826        C  0.08257455  0.41964191  0.15721558    -0.20000
C827        C  0.12620014  0.41771781  0.14283788    -0.29400
C828        C  0.16134646  0.41123121  0.17022364     0.43600
C829        C  0.10091075  0.39923387  0.26920685     0.04700
O830        O  0.03052670  0.41358451  0.21122293    -0.57900
H831        H  0.05530656  0.42500869  0.13643558     0.17700
O832        O  0.20456597  0.41111147  0.15736956    -0.64600
H833        H  0.17999899  0.40141276  0.23197690     0.16100
C834        C  0.11822847  0.36350303  0.28867508     0.28400
C835        C  0.11240753  0.35782943  0.33012589    -0.25500
C836        C  0.08925756  0.38731724  0.35299003    -0.24800
C837        C  0.07203608  0.42325793  0.33353964     0.39800
C838        C  0.07785478  0.42891862  0.29187816    -0.27200
O839        O  0.13923800  0.33304842  0.26703662    -0.59100
H840        H  0.12540996  0.32963720  0.34417142     0.15500
O841        O  0.04946061  0.45294879  0.35476879    -0.60600
H842        H  0.06478784  0.45677540  0.27730501     0.13900
H843        H  0.21472470  0.44057144  0.15941563     0.45800
H844        H  0.17108616  0.33537459  0.27431243     0.41200
H845        H  0.07234161  0.47337349  0.36330351     0.44600
H846        H  0.02046921  0.38411410  0.20941332     0.36100
loop_ 
_geom_bond_atom_site_label_1 
_geom_bond_atom_site_label_2 
_geom_bond_distance 
_geom_bond_site_symmetry_2 
_ccdc_geom_bond_type 
N1            N2   1.328       .  A
N1            N7   1.317       .  A
N1          Mn30   2.236   1_554  S
N2            C9   1.361       .  A
N3            N5   1.318       .  A
N3            N4   1.317       .  A
N3          Mn19   2.197       .  S
N4           C10   1.348       .  A
N5            N6   1.324       .  A
N5          Mn30   2.218       .  S
N6           C10   1.356       .  A
N7            N8   1.313       .  A
N7          Mn19   2.175   1_554  S
N8            C9   1.345       .  A
C9          C731   1.480       .  S
C10         C683   1.472       .  S
N11          N17   1.313       .  A
N11          N12   1.320       .  A
N11         Mn41   2.194       .  S
N12          C20   1.354       .  A
N13          N14   1.318       .  A
N13          N15   1.313       .  A
N13         Mn19   2.191   1_554  S
N14          C21   1.351       .  A
N15          N16   1.320       .  A
N15         Mn41   2.183   1_554  S
N16          C21   1.351       .  A
N17          N18   1.317       .  A
N17         Mn19   2.179       .  S
N18          C20   1.349       .  A
Mn19        Cl43   2.503       .  S
C20         C803   1.476       .  S
C21         C827   1.468       .  S
N22          N23   1.327       .  A
N22          N28   1.319       .  A
N22         Mn30   2.231       .  S
N23          C31   1.359       .  A
N24          N26   1.319       .  A
N24          N25   1.318       .  A
N24         Mn42   2.207   1_554  S
N25          C32   1.349       .  A
N26          N27   1.324       .  A
N26         Mn30   2.210   1_554  S
N27          C32   1.354       .  A
N28          N29   1.314       .  A
N28         Mn42   2.184       .  S
N29          C31   1.345       .  A
Mn30        Cl43   2.583       .  S
C31         C659   1.474       .  S
C32         C716   1.469       .  S
N33          N34   1.318       .  A
N33          N39   1.314       .  A
N33         Mn41   2.183   1_554  S
N34          C44   1.352       .  A
N35          N36   1.320       .  A
N35          N37   1.313       .  A
N35         Mn42   2.205       .  S
N36          C45   1.354       .  A
N37          N38   1.317       .  A
N37         Mn41   2.173       .  S
N38          C45   1.348       .  A
N39          N40   1.318       .  A
N39         Mn42   2.192   1_554  S
N40          C44   1.351       .  A
Mn41        Cl43   2.585       .  S
Mn42        Cl43   2.498       .  S
C44         C788   1.470       .  S
C45         C755   1.462       .  S
N46          N47   1.316       .  A
N46          N52   1.313       .  A
N46         Mn75   2.176   1_554  S
N47          C54   1.349       .  A
N48          N50   1.312       .  A
N48          N49   1.321       .  A
N48         Mn64   2.198   1_556  S
N49          C55   1.353       .  A
N50          N51   1.318       .  A
N50         Mn75   2.184       .  S
N51          C55   1.352       .  A
N52          N53   1.321       .  A
N52         Mn64   2.201       .  S
N53          C54   1.354       .  A
C54         C644   1.469       .  S
C55         C611   1.479       .  S
N56          N62   1.318       .  A
N56          N57   1.325       .  A
N56         Mn86   2.221       .  S
N57          C65   1.358       .  A
N58          N59   1.316       .  A
N58          N60   1.319       .  A
N58         Mn64   2.193       .  S
N59          C66   1.347       .  A
N60          N61   1.324       .  A
N60         Mn86   2.217   1_554  S
N61          C66   1.355       .  A
N62          N63   1.313       .  A
N62         Mn64   2.185   1_556  S
N63          C65   1.347       .  A
Mn64        Cl88   2.509   1_554  S
C65         C539   1.473       .  S
C66         C491   1.469       .  S
N67          N68   1.318       .  A
N67          N73   1.313       .  A
N67         Mn75   2.174       .  S
N68          C76   1.349       .  A
N69          N71   1.313       .  A
N69          N70   1.320       .  A
N69         Mn87   2.194   1_554  S
N70          C77   1.352       .  A
N71          N72   1.319       .  A
N71         Mn75   2.187   1_554  S
N72          C77   1.351       .  A
N73          N74   1.317       .  A
N73         Mn87   2.187       .  S
N74          C76   1.351       .  A
Mn75        Cl88   2.572       .  S
C76         C572   1.470       .  S
C77         C587   1.472       .  S
N78          N79   1.327       .  A
N78          N84   1.318       .  A
N78         Mn86   2.226   1_554  S
N79          C89   1.359       .  A
N80          N81   1.316       .  A
N80          N82   1.318       .  A
N80         Mn87   2.193       .  S
N81          C90   1.347       .  A
N82          N83   1.325       .  A
N82         Mn86   2.216       .  S
N83          C90   1.356       .  A
N84          N85   1.313       .  A
N84         Mn87   2.183   1_554  S
N85          C89   1.345       .  A
Mn86        Cl88   2.581       .  S
Mn87        Cl88   2.501       .  S
C89         C467   1.475       .  S
C90         C515   1.471       .  S
N91          N92   1.333       .  A
N91          N97   1.320       .  A
N91        Mn120   2.263   1_545  S
N92          C99   1.365       .  A
N93          N95   1.321       .  A
N93          N94   1.315       .  A
N93        Mn109   2.194       .  S
N94         C100   1.345       .  A
N95          N96   1.329       .  A
N95        Mn120   2.248       .  S
N96         C100   1.361       .  A
N97          N98   1.312       .  A
N97        Mn109   2.175   1_545  S
N98          C99   1.341       .  A
C99         C452   1.486       .  S
C100        C404   1.479       .  S
N101        N107   1.313       .  A
N101        N102   1.321       .  A
N101       Mn131   2.186       .  S
N102        C110   1.350       .  A
N103        N104   1.322       .  A
N103        N105   1.314       .  A
N103       Mn109   2.203   1_545  S
N104        C111   1.352       .  A
N105        N106   1.325       .  A
N105       Mn131   2.207   1_545  S
N106        C111   1.354       .  A
N107        N108   1.321       .  A
N107       Mn109   2.198       .  S
N108        C110   1.352       .  A
Mn109      Cl133   2.488       .  S
C110        C707   1.477       .  S
C111        C740   1.488       .  S
N112        N113   1.332       .  A
N112        N118   1.320       .  A
N112       Mn120   2.260       .  S
N113        C121   1.365       .  A
N114        N116   1.320       .  A
N114        N115   1.311       .  A
N114       Mn132   2.176   1_545  S
N115        C122   1.342       .  A
N116        N117   1.330       .  A
N116       Mn120   2.247   1_545  S
N117        C122   1.362       .  A
N118        N119   1.313       .  A
N118       Mn132   2.177       .  S
N119        C121   1.343       .  A
Mn120      Cl133   2.600       .  S
C121        C380   1.489       .  S
C122        C428   1.482       .  S
N123        N124   1.321       .  A
N123        N129   1.311       .  A
N123       Mn131   2.184   1_545  S
N124        C134   1.352       .  A
N125        N126   1.319       .  A
N125        N127   1.313       .  A
N125       Mn132   2.191       .  S
N126        C135   1.351       .  A
N127        N128   1.324       .  A
N127       Mn131   2.205       .  S
N128        C135   1.354       .  A
N129        N130   1.319       .  A
N129       Mn132   2.193   1_545  S
N130        C134   1.351       .  A
Mn131      Cl133   2.594       .  S
Mn132      Cl133   2.488       .  S
C134        C500   1.474       .  S
C135        C476   1.481       .  S
N136        N137   1.323       .  A
N136        N142   1.313       .  A
N136       Mn165   2.205   1_545  S
N137        C144   1.354       .  A
N138        N140   1.314       .  A
N138        N139   1.318       .  A
N138       Mn154   2.189       .  S
N139        C145   1.348       .  A
N140        N141   1.325       .  A
N140       Mn165   2.206       .  S
N141        C145   1.355       .  A
N142        N143   1.320       .  A
N142       Mn154   2.197   1_545  S
N143        C144   1.352       .  A
C144        C692   1.477       .  S
C145        C668   1.477       .  S
N146        N152   1.319       .  A
N146        N147   1.331       .  A
N146       Mn176   2.251       .  S
N147        C155   1.365       .  A
N148        N149   1.315       .  A
N148        N150   1.321       .  A
N148       Mn154   2.187   1_545  S
N149        C156   1.345       .  A
N150        N151   1.328       .  A
N150       Mn176   2.245   1_545  S
N151        C156   1.360       .  A
N152        N153   1.312       .  A
N152       Mn154   2.176       .  S
N153        C155   1.342       .  A
Mn154      Cl178   2.495       .  S
C155        C308   1.486       .  S
C156        C347   1.482       .  S
N157        N158   1.323       .  A
N157        N163   1.313       .  A
N157       Mn165   2.205       .  S
N158        C166   1.355       .  A
N159        N161   1.313       .  A
N159        N160   1.318       .  A
N159       Mn177   2.188   1_545  S
N160        C167   1.350       .  A
N161        N162   1.322       .  A
N161       Mn165   2.199   1_545  S
N162        C167   1.353       .  A
N163        N164   1.319       .  A
N163       Mn177   2.188       .  S
N164        C166   1.349       .  A
Mn165      Cl178   2.582       .  S
C166        C524   1.479       .  S
C167        C548   1.477       .  S
N168        N169   1.329       .  A
N168        N174   1.320       .  A
N168       Mn176   2.243   1_545  S
N169        C179   1.360       .  A
N170        N171   1.313       .  A
N170        N172   1.320       .  A
N170       Mn177   2.179       .  S
N171        C180   1.343       .  A
N172        N173   1.332       .  A
N172       Mn176   2.255       .  S
N173        C180   1.364       .  A
N174        N175   1.312       .  A
N174       Mn177   2.178   1_545  S
N175        C179   1.342       .  A
Mn176      Cl178   2.605       .  S
Mn177      Cl178   2.492       .  S
C179        C323   1.476       .  S
C180        C275   1.487       .  S
N181        N182   1.328       .  A
N181        N187   1.320       .  A
N181       Mn210   2.238   1_455  S
N182        C189   1.360       .  A
N183        N185   1.321       .  A
N183        N184   1.316       .  A
N183       Mn199   2.193       .  S
N184        C190   1.346       .  A
N185        N186   1.328       .  A
N185       Mn210   2.241   1_455  S
N186        C190   1.358       .  A
N187        N188   1.316       .  A
N187       Mn199   2.190       .  S
N188        C189   1.346       .  A
C189        C443   1.482       .  S
C190        C356   1.479       .  S
N191        N197   1.313       .  A
N191        N192   1.319       .  A
N191       Mn221   2.179       .  S
N192        C200   1.350       .  A
N193        N194   1.316       .  A
N193        N195   1.313       .  A
N193       Mn199   2.190       .  S
N194        C201   1.351       .  A
N195        N196   1.322       .  A
N195       Mn221   2.192       .  S
N196        C201   1.354       .  A
N197        N198   1.318       .  A
N197       Mn199   2.197       .  S
N198        C200   1.352       .  A
Mn199      Cl223   2.501       .  S
C200        C812   1.466       .  S
C201        C836   1.478       .  S
N202        N203   1.327       .  A
N202        N208   1.319       .  A
N202       Mn210   2.234       .  S
N203        C211   1.360       .  A
N204        N206   1.318       .  A
N204        N205   1.310       .  A
N204       Mn222   2.171       .  S
N205        C212   1.343       .  A
N206        N207   1.330       .  A
N206       Mn210   2.244       .  S
N207        C212   1.363       .  A
N208        N209   1.314       .  A
N208       Mn222   2.183       .  S
N209        C211   1.345       .  A
Mn210      Cl223   2.587   1_655  S
C211        C332   1.480       .  S
C212        C419   1.483       .  S
N213        N214   1.318       .  A
N213        N219   1.311       .  A
N213       Mn221   2.184   1_655  S
N214        C224   1.352       .  A
N215        N216   1.318       .  A
N215        N217   1.313       .  A
N215       Mn222   2.180       .  S
N216        C225   1.349       .  A
N217        N218   1.320       .  A
N217       Mn221   2.201   1_655  S
N218        C225   1.354       .  A
N219        N220   1.319       .  A
N219       Mn222   2.185       .  S
N220        C224   1.352       .  A
Mn221      Cl223   2.584       .  S
Mn222      Cl223   2.505   1_655  S
C224        C635   1.474       .  S
C225        C620   1.468       .  S
N226        N227   1.320       .  A
N226        N232   1.313       .  A
N226       Mn255   2.190       .  S
N227        C234   1.353       .  A
N228        N230   1.312       .  A
N228        N229   1.316       .  A
N228       Mn244   2.188       .  S
N229        C235   1.350       .  A
N230        N231   1.321       .  A
N230       Mn255   2.182       .  S
N231        C235   1.352       .  A
N232        N233   1.317       .  A
N232       Mn244   2.187       .  S
N233        C234   1.350       .  A
C234        C779   1.474       .  S
C235        C764   1.476       .  S
N236        N242   1.320       .  A
N236        N237   1.331       .  A
N236       Mn266   2.260       .  S
N237        C245   1.364       .  A
N238        N239   1.316       .  A
N238        N240   1.320       .  A
N238       Mn244   2.188       .  S
N239        C246   1.345       .  A
N240        N241   1.329       .  A
N240       Mn266   2.253       .  S
N241        C246   1.362       .  A
N242        N243   1.314       .  A
N242       Mn244   2.184       .  S
N243        C245   1.344       .  A
Mn244      Cl268   2.493       .  S
C245        C299   1.485       .  S
C246        C395   1.483       .  S
N247        N248   1.322       .  A
N247        N253   1.312       .  A
N247       Mn255   2.186   1_655  S
N248        C256   1.352       .  A
N249        N251   1.311       .  A
N249        N250   1.317       .  A
N249       Mn267   2.181       .  S
N250        C257   1.350       .  A
N251        N252   1.320       .  A
N251       Mn255   2.188   1_655  S
N252        C257   1.354       .  A
N253        N254   1.314       .  A
N253       Mn267   2.178       .  S
N254        C256   1.349       .  A
Mn255      Cl268   2.596       .  S
C256        C563   1.469       .  S
C257        C596   1.476       .  S
N258        N259   1.333       .  A
N258        N264   1.319       .  A
N258       Mn266   2.258   1_655  S
N259        C269   1.366       .  A
N260        N261   1.312       .  A
N260        N262   1.319       .  A
N260       Mn267   2.180       .  S
N261        C270   1.343       .  A
N262        N263   1.334       .  A
N262       Mn266   2.259   1_655  S
N263        C270   1.366       .  A
N264        N265   1.310       .  A
N264       Mn267   2.170       .  S
N265        C269   1.342       .  A
Mn266      Cl268   2.606       .  S
Mn267      Cl268   2.487   1_655  S
C269        C371   1.488       .  S
C270        C284   1.495       .  S
C271        C272   1.409       .  A
C271        C276   1.412       .  A
C271        H281   1.083       .  S
C272        C277   1.493       .  S
C272        C273   1.407       .  A
C273        C274   1.399       .  A
C273        O278   1.373       .  S
C274        C275   1.406       .  A
C274        H279   1.084       .  S
C275        C276   1.410       .  A
C276        O280   1.371       .  S
C277        C282   1.404       .  A
C277        C286   1.410       .  A
O278        H294   0.992       .  S
O280        H291   0.992       .  S
C282        C283   1.396       .  A
C282        O287   1.372       .  S
C283        C284   1.409       .  A
C283        H288   1.083       .  S
C284        C285   1.412       .  A
C285        C286   1.415       .  A
C285        O289   1.371       .  S
C286        H290   1.083       .  S
O287        H292   0.992       .  S
O289        H293   0.991       .  S
C295        C296   1.402       .  A
C295        C300   1.399       .  A
C295        H305   1.084       .  S
C296        C301   1.492       .  S
C296        C297   1.413       .  A
C297        C298   1.408       .  A
C297        O302   1.371       .  S
C298        C299   1.404       .  A
C298        H303   1.083       .  S
C299        C300   1.412       .  A
C300        O304   1.371       .  S
C301        C306   1.407       .  A
C301        C310   1.410       .  A
O302        H318   0.992       .  S
O304        H315   0.992       .  S
C306        C307   1.399       .  A
C306        O311   1.372       .  S
C307        C308   1.407       .  A
C307        H312   1.084       .  S
C308        C309   1.409       .  A
C309        C310   1.410       .  A
C309        O313   1.371       .  S
C310        H314   1.083       .  S
O311        H316   0.992       .  S
O313        H317   0.991       .  S
C319        C320   1.400       .  A
C319        C324   1.396       .  A
C319        H329   1.084       .  S
C320        C325   1.488       .  S
C320        C321   1.415       .  A
C321        C322   1.409       .  A
C321        O326   1.373       .  S
C322        C323   1.400       .  A
C322        H327   1.083       .  S
C323        C324   1.412       .  A
C324        O328   1.373       .  S
C325        C330   1.408       .  A
C325        C334   1.407       .  A
O326        H342   0.992       .  S
O328        H339   0.992   1_545  S
C330        C331   1.397       .  A
C330        O335   1.372       .  S
C331        C332   1.405       .  A
C331        H336   1.084       .  S
C332        C333   1.409       .  A
C333        C334   1.405       .  A
C333        O337   1.371       .  S
C334        H338   1.083       .  S
O335        H340   0.991       .  S
O337        H341   0.992       .  S
C343        C344   1.409       .  A
C343        C348   1.409       .  A
C343        H353   1.083       .  S
C344        C349   1.492       .  S
C344        C345   1.409       .  A
C345        C346   1.397       .  A
C345        O350   1.372       .  S
C346        C347   1.403       .  A
C346        H351   1.084       .  S
C347        C348   1.411       .  A
C348        O352   1.372       .  S
C349        C354   1.407       .  A
C349        C358   1.411       .  A
O350        H366   0.992       .  S
O352        H363   0.992       .  S
C354        C355   1.401       .  A
C354        O359   1.371       .  S
C355        C356   1.406       .  A
C355        H360   1.084       .  S
C356        C357   1.404       .  A
C357        C358   1.406       .  A
C357        O361   1.371       .  S
C358        H362   1.083       .  S
O359        H364   0.992       .  S
O361        H365   0.991       .  S
C367        C368   1.411       .  A
C367        C372   1.412       .  A
C367        H377   1.083       .  S
C368        C373   1.495       .  S
C368        C369   1.408       .  A
C369        C370   1.395       .  A
C369        O374   1.372       .  S
C370        C371   1.407       .  A
C370        H375   1.082       .  S
C371        C372   1.409       .  A
C372        O376   1.370       .  S
C373        C378   1.413       .  A
C373        C382   1.402       .  A
O374        H390   0.992       .  S
O376        H387   0.991       .  S
C378        C379   1.412       .  A
C378        O383   1.371       .  S
C379        C380   1.406       .  A
C379        H384   1.083       .  S
C380        C381   1.413       .  A
C381        C382   1.398       .  A
C381        O385   1.373       .  S
C382        H386   1.084       .  S
O383        H388   0.991       .  S
O385        H389   0.992       .  S
C391        C392   1.410       .  A
C391        C396   1.407       .  A
C391        H401   1.083       .  S
C392        C397   1.502       .  S
C392        C393   1.413       .  A
C393        C394   1.402       .  A
C393        O398   1.372       .  S
C394        C395   1.404       .  A
C394        H399   1.084       .  S
C395        C396   1.408       .  A
C396        O400   1.371       .  S
C397        C402   1.411       .  A
C397        C406   1.413       .  A
O398        H414   0.992       .  S
O400        H411   0.991       .  S
C402        C403   1.401       .  A
C402        O407   1.372       .  S
C403        C404   1.402       .  A
C403        H408   1.079       .  S
C404        C405   1.404       .  A
C405        C406   1.407       .  A
C405        O409   1.371       .  S
C406        H410   1.083       .  S
O407        H412   0.992       .  S
O409        H413   0.992       .  S
C415        C416   1.407       .  A
C415        C420   1.409       .  A
C415        H425   1.083       .  S
C416        C421   1.481       .  S
C416        C417   1.403       .  A
C417        C418   1.394       .  A
C417        O422   1.373       .  S
C418        C419   1.407       .  A
C418        H423   1.084       .  S
C419        C420   1.410       .  A
C420        O424   1.371       .  S
C421        C426   1.404       .  A
C421        C430   1.407       .  A
O422        H438   0.992       .  S
O424        H435   0.991       .  S
C426        C427   1.395       .  A
C426        O431   1.373       .  S
C427        C428   1.406       .  A
C427        H432   1.084       .  S
C428        C429   1.410       .  A
C429        C430   1.409       .  A
C429        O433   1.371       .  S
C430        H434   1.083       .  S
O431        H436   0.992       .  S
O433        H437   0.992       .  S
C439        C440   1.408       .  A
C439        C444   1.407       .  A
C439        H449   1.083       .  S
C440        C445   1.493       .  S
C440        C441   1.409       .  A
C441        C442   1.403       .  A
C441        O446   1.373       .  S
C442        C443   1.404       .  A
C442        H447   1.084       .  S
C443        C444   1.409       .  A
C444        O448   1.371       .  S
C445        C450   1.416       .  A
C445        C454   1.398       .  A
O446        H462   0.992       .  S
O448        H459   0.991       .  S
C450        C451   1.410       .  A
C450        O455   1.371       .  S
C451        C452   1.402       .  A
C451        H456   1.083       .  S
C452        C453   1.414       .  A
C453        C454   1.399       .  A
C453        O457   1.371       .  S
C454        H458   1.084       .  S
O455        H460   0.991       .  S
O457        H461   0.992       .  S
C463        C464   1.409       .  A
C463        C468   1.406       .  A
C463        H473   1.083       .  S
C464        C469   1.492       .  S
C464        C465   1.412       .  A
C465        C466   1.395       .  A
C465        O470   1.372       .  S
C466        C467   1.401       .  A
C466        H471   1.084       .  S
C467        C468   1.408       .  A
C468        O472   1.371       .  S
C469        C474   1.414       .  A
C469        C478   1.404       .  A
O470        H486   0.991       .  S
O472        H483   0.992       .  S
C474        C475   1.404       .  A
C474        O479   1.372       .  S
C475        C476   1.403       .  A
C475        H480   1.083       .  S
C476        C477   1.410       .  A
C477        C478   1.398       .  A
C477        O481   1.371       .  S
C478        H482   1.083       .  S
O479        H484   0.991       .  S
O481        H485   0.992       .  S
C487        C488   1.404       .  A
C487        C492   1.401       .  A
C487        H497   1.083       .  S
C488        C493   1.486       .  S
C488        C489   1.411       .  A
C489        C490   1.398       .  A
C489        O494   1.372       .  S
C490        C491   1.400       .  A
C490        H495   1.084       .  S
C491        C492   1.409       .  A
C492        O496   1.372       .  S
C493        C498   1.409       .  A
C493        C502   1.405       .  A
O494        H510   0.991       .  S
O496        H507   0.992       .  S
C498        C499   1.402       .  A
C498        O503   1.369       .  S
C499        C500   1.405       .  A
C499        H504   1.084       .  S
C500        C501   1.406       .  A
C501        C502   1.396       .  A
C501        O505   1.372       .  S
C502        H506   1.083       .  S
O503        H508   0.992       .  S
O505        H509   0.992       .  S
C511        C512   1.408       .  A
C511        C516   1.400       .  A
C511        H521   1.083       .  S
C512        C517   1.493       .  S
C512        C513   1.413       .  A
C513        C514   1.402       .  A
C513        O518   1.372       .  S
C514        C515   1.403       .  A
C514        H519   1.084       .  S
C515        C516   1.404       .  A
C516        O520   1.371       .  S
C517        C522   1.414       .  A
C517        C526   1.406       .  A
O518        H534   0.992       .  S
O520        H531   0.991       .  S
C522        C523   1.401       .  A
C522        O527   1.373       .  S
C523        C524   1.401       .  A
C523        H528   1.084       .  S
C524        C525   1.409       .  A
C525        C526   1.402       .  A
C525        O529   1.370       .  S
C526        H530   1.083       .  S
O527        H532   0.992       .  S
O529        H533   0.991       .  S
C535        C536   1.406       .  A
C535        C540   1.403       .  A
C535        H545   1.084       .  S
C536        C541   1.482       .  S
C536        C537   1.408       .  A
C537        C538   1.394       .  A
C537        O542   1.372       .  S
C538        C539   1.403       .  A
C538        H543   1.084       .  S
C539        C540   1.409       .  A
C540        O544   1.371       .  S
C541        C546   1.410       .  A
C541        C550   1.401       .  A
O542        H558   0.992       .  S
O544        H555   0.991       .  S
C546        C547   1.402       .  A
C546        O551   1.372       .  S
C547        C548   1.403       .  A
C547        H552   1.084       .  S
C548        C549   1.411       .  A
C549        C550   1.398       .  A
C549        O553   1.372       .  S
C550        H554   1.084       .  S
O551        H556   0.992       .  S
O553        H557   0.992       .  S
C559        C560   1.400       .  A
C559        C564   1.388       .  A
C559        H569   1.084       .  S
C560        C565   1.474       .  S
C560        C561   1.409       .  A
C561        C562   1.403       .  A
C561        O566   1.372       .  S
C562        C563   1.404       .  A
C562        H567   1.084       .  S
C563        C564   1.409       .  A
C564        O568   1.372       .  S
C565        C570   1.406       .  A
C565        C574   1.403       .  A
O566        H582   0.992       .  S
O568        H579   0.992       .  S
C570        C571   1.400       .  A
C570        O575   1.372       .  S
C571        C572   1.404       .  A
C571        H576   1.084       .  S
C572        C573   1.409       .  A
C573        C574   1.392       .  A
C573        O577   1.372       .  S
C574        H578   1.084       .  S
O575        H580   0.991       .  S
O577        H581   0.992       .  S
C583        C584   1.403       .  A
C583        C588   1.396       .  A
C583        H593   1.080       .  S
C584        C589   1.484       .  S
C584        C585   1.410       .  A
C585        C586   1.400       .  A
C585        O590   1.372       .  S
C586        C587   1.404       .  A
C586        H591   1.084       .  S
C587        C588   1.406       .  A
C588        O592   1.372       .  S
C589        C594   1.410       .  A
C589        C598   1.403       .  A
O590        H606   0.992       .  S
O592        H603   0.992       .  S
C594        C595   1.397       .  A
C594        O599   1.371       .  S
C595        C596   1.401       .  A
C595        H600   1.084       .  S
C596        C597   1.412       .  A
C597        C598   1.398       .  A
C597        O601   1.371       .  S
C598        H602   1.083       .  S
O599        H604   0.991       .  S
O601        H605   0.992       .  S
C607        C608   1.405       .  A
C607        C612   1.402       .  A
C607        H617   1.084       .  S
C608        C613   1.481       .  S
C608        C609   1.407       .  A
C609        C610   1.396       .  A
C609        O614   1.372       .  S
C610        C611   1.404       .  A
C610        H615   1.083       .  S
C611        C612   1.412       .  A
C612        O616   1.371       .  S
C613        C618   1.409       .  A
C613        C622   1.405       .  A
O614        H630   0.991       .  S
O616        H627   0.991       .  S
C618        C619   1.399       .  A
C618        O623   1.373       .  S
C619        C620   1.400       .  A
C619        H624   1.084       .  S
C620        C621   1.407       .  A
C621        C622   1.400       .  A
C621        O625   1.372       .  S
C622        H626   1.084       .  S
O623        H628   0.992   1_655  S
O625        H629   0.991       .  S
C631        C632   1.403       .  A
C631        C636   1.397       .  A
C631        H641   1.083       .  S
C632        C637   1.481       .  S
C632        C633   1.409       .  A
C633        C634   1.396       .  A
C633        O638   1.371       .  S
C634        C635   1.402       .  A
C634        H639   1.083       .  S
C635        C636   1.409       .  A
C636        O640   1.371       .  S
C637        C642   1.411       .  A
C637        C646   1.400       .  A
O638        H654   0.990       .  S
O640        H651   0.992       .  S
C642        C643   1.402       .  A
C642        O647   1.372       .  S
C643        C644   1.401       .  A
C643        H648   1.084       .  S
C644        C645   1.408       .  A
C645        C646   1.391       .  A
C645        O649   1.370       .  S
C646        H650   1.079       .  S
O647        H652   0.992       .  S
O649        H653   0.992       .  S
C655        C656   1.405       .  A
C655        C660   1.397       .  A
C655        H665   1.083       .  S
C656        C661   1.491       .  S
C656        C657   1.412       .  A
C657        C658   1.405       .  A
C657        O662   1.371       .  S
C658        C659   1.404       .  A
C658        H663   1.084       .  S
C659        C660   1.407       .  A
C660        O664   1.372       .  S
C661        C666   1.409       .  A
C661        C670   1.409       .  A
O662        H678   0.992       .  S
O664        H675   0.991       .  S
C666        C667   1.400       .  A
C666        O671   1.373       .  S
C667        C668   1.404       .  A
C667        H672   1.084       .  S
C668        C669   1.405       .  A
C669        C670   1.405       .  A
C669        O673   1.371       .  S
C670        H674   1.083       .  S
O671        H676   0.992       .  S
O673        H677   0.992       .  S
C679        C680   1.406       .  A
C679        C684   1.401       .  A
C679        H689   1.083       .  S
C680        C685   1.492       .  S
C680        C681   1.413       .  A
C681        C682   1.401       .  A
C681        O686   1.372       .  S
C682        C683   1.402       .  A
C682        H687   1.084       .  S
C683        C684   1.407       .  A
C684        O688   1.371       .  S
C685        C690   1.412       .  A
C685        C694   1.407       .  A
O686        H702   0.992       .  S
O688        H699   0.991       .  S
C690        C691   1.406       .  A
C690        O695   1.373       .  S
C691        C692   1.404       .  A
C691        H696   1.084       .  S
C692        C693   1.406       .  A
C693        C694   1.399       .  A
C693        O697   1.372       .  S
C694        H698   1.083       .  S
O695        H700   0.992       .  S
O697        H701   0.992       .  S
C703        C704   1.405       .  A
C703        C708   1.396       .  A
C703        H713   1.083       .  S
C704        C709   1.486       .  S
C704        C705   1.410       .  A
C705        C706   1.405       .  A
C705        O710   1.372       .  S
C706        C707   1.407       .  A
C706        H711   1.084       .  S
C707        C708   1.405       .  A
C708        O712   1.372       .  S
C709        C714   1.411       .  A
C709        C718   1.405       .  A
O710        H726   0.992       .  S
O712        H723   0.992       .  S
C714        C715   1.402       .  A
C714        O719   1.373       .  S
C715        C716   1.399       .  A
C715        H720   1.084       .  S
C716        C717   1.408       .  A
C717        C718   1.401       .  A
C717        O721   1.372       .  S
C718        H722   1.084       .  S
O719        H724   0.992       .  S
O721        H725   0.991       .  S
C727        C728   1.403       .  A
C727        C732   1.397       .  A
C727        H737   1.083       .  S
C728        C733   1.492       .  S
C728        C729   1.412       .  A
C729        C730   1.406       .  A
C729        O734   1.369       .  S
C730        C731   1.403       .  A
C730        H735   1.083       .  S
C731        C732   1.411       .  A
C732        O736   1.372       .  S
C733        C738   1.409       .  A
C733        C742   1.407       .  A
O734        H750   0.992       .  S
O736        H747   0.991       .  S
C738        C739   1.404       .  A
C738        O743   1.373       .  S
C739        C740   1.406       .  A
C739        H744   1.084       .  S
C740        C741   1.410       .  A
C741        C742   1.406       .  A
C741        O745   1.371       .  S
C742        H746   1.083       .  S
O743        H748   0.992       .  S
O745        H749   0.992       .  S
C751        C752   1.405       .  A
C751        C756   1.401       .  A
C751        H761   1.082       .  S
C752        C757   1.481       .  S
C752        C753   1.410       .  A
C753        C754   1.392       .  A
C753        O758   1.372       .  S
C754        C755   1.398       .  A
C754        H759   1.084       .  S
C755        C756   1.406       .  A
C756        O760   1.372       .  S
C757        C762   1.410       .  A
C757        C766   1.401       .  A
O758        H774   0.991       .  S
O760        H771   0.991       .  S
C762        C763   1.403       .  A
C762        O767   1.373       .  S
C763        C764   1.406       .  A
C763        H768   1.084       .  S
C764        C765   1.408       .  A
C765        C766   1.390       .  A
C765        O769   1.371       .  S
C766        H770   1.084       .  S
O767        H772   0.991       .  S
O769        H773   0.992       .  S
C775        C776   1.401       .  A
C775        C780   1.394       .  A
C775        H785   1.084       .  S
C776        C781   1.477       .  S
C776        C777   1.409       .  A
C777        C778   1.400       .  A
C777        O782   1.373       .  S
C778        C779   1.404       .  A
C778        H783   1.084       .  S
C779        C780   1.411       .  A
C780        O784   1.372       .  S
C781        C786   1.407       .  A
C781        C790   1.402       .  A
O782        H798   0.989       .  S
O784        H795   0.993       .  S
C786        C787   1.397       .  A
C786        O791   1.370       .  S
C787        C788   1.403       .  A
C787        H792   1.084       .  S
C788        C789   1.409       .  A
C789        C790   1.394       .  A
C789        O793   1.372       .  S
C790        H794   1.084       .  S
O791        H796   0.990       .  S
O793        H797   0.993       .  S
C799        C800   1.401       .  A
C799        C804   1.395       .  A
C799        H809   1.084       .  S
C800        C805   1.477       .  S
C800        C801   1.407       .  A
C801        C802   1.399       .  A
C801        O806   1.372       .  S
C802        C803   1.403       .  A
C802        H807   1.084       .  S
C803        C804   1.413       .  A
C804        O808   1.372       .  S
C805        C810   1.409       .  A
C805        C814   1.402       .  A
O806        H822   0.992       .  S
O808        H819   0.992       .  S
C810        C811   1.400       .  A
C810        O815   1.372       .  S
C811        C812   1.403       .  A
C811        H816   1.084       .  S
C812        C813   1.406       .  A
C813        C814   1.393       .  A
C813        O817   1.372       .  S
C814        H818   1.084       .  S
O815        H820   0.992       .  S
O817        H821   0.991       .  S
C823        C824   1.402       .  A
C823        C828   1.394       .  A
C823        H833   1.084       .  S
C824        C829   1.479       .  S
C824        C825   1.410       .  A
C825        C826   1.400       .  A
C825        O830   1.370       .  S
C826        C827   1.402       .  A
C826        H831   1.084       .  S
C827        C828   1.407       .  A
C828        O832   1.372       .  S
C829        C834   1.406       .  A
C829        C838   1.404       .  A
O830        H846   0.991       .  S
O832        H843   0.992       .  S
C834        C835   1.395       .  A
C834        O839   1.373       .  S
C835        C836   1.404       .  A
C835        H840   1.084       .  S
C836        C837   1.411       .  A
C837        C838   1.401       .  A
C837        O841   1.371       .  S
C838        H842   1.083       .  S
O839        H844   0.992       .  S
O841        H845   0.991       .  S
