geometry optimzed in LAMMPS
_audit_creation_date              2020-11-30 
_audit_creation_method            'lammps2cif' 
_symmetry_space_group_name_H-M    'P1' 
_symmetry_Int_Tables_number       1 
_symmetry_cell_setting            triclinic 
loop_ 
_symmetry_equiv_pos_as_xyz 
  x,y,z 
_cell_length_a                    28.167738686343156 
_cell_length_b                    31.50748688679159 
_cell_length_c                    51.82445914438003 
_cell_angle_alpha                 90.76365068082251 
_cell_angle_beta                  90.31469649757393 
_cell_angle_gamma                 89.99093270605921 
loop_ 
_atom_site_label 
_atom_site_type_symbol 
_atom_site_fract_x 
_atom_site_fract_y 
_atom_site_fract_z 
_atom_site_charge 
N1          N  0.83911382  0.40892465  0.29862104    -0.08100
N2          N  0.86984080  0.42451807  0.31591497    -0.60220
N3          N  0.85386680  0.31946957  0.26609794    -0.07780
N4          N  0.88293536  0.28652558  0.26578542    -0.62340
N5          N  0.87366035  0.35215883  0.25475204    -0.07370
N6          N  0.91692699  0.34209528  0.24685656    -0.60190
N7          N  0.81547433  0.37753867  0.30903375    -0.07050
N8          N  0.82748086  0.37261713  0.33325872    -0.62700
C9          C  0.86080172  0.40211034  0.33768650     0.94080
C10         C  0.92207844  0.30084684  0.25361534     0.93860
N11         N  0.71496589  0.27658694  0.25242062    -0.08280
N12         N  0.70664241  0.24104285  0.23920024    -0.60790
N13         N  0.71785029  0.33516863  0.30735293    -0.06400
N14         N  0.71283253  0.34716488  0.33169833    -0.62050
N15         N  0.67755205  0.33968414  0.29477088    -0.08310
N16         N  0.64441991  0.35472058  0.31027566    -0.61060
N17         N  0.75591383  0.27403259  0.26445661    -0.06040
N18         N  0.77658780  0.23740067  0.25971280    -0.62130
Mn19       Mn  0.78553898  0.32573648  0.28696166     1.18440
C20         C  0.74578427  0.21714798  0.24390280     0.96160
C21         C  0.66678308  0.35893164  0.33331699     0.96830
N22         N  0.83483201  0.41841355  0.21238444    -0.08330
N23         N  0.86963311  0.42707276  0.19612337    -0.64640
N24         N  0.75513814  0.47780440  0.24262242    -0.07130
N25         N  0.73738160  0.51645689  0.24406678    -0.65310
N26         N  0.79552995  0.47552665  0.25562292    -0.07840
N27         N  0.80627000  0.51331951  0.26563341    -0.64900
N28         N  0.79376167  0.41967142  0.20013418    -0.06730
N29         N  0.79973112  0.42865544  0.17570018    -0.65590
Mn30       Mn  0.83730237  0.41488505  0.25539266     1.10660
C31         C  0.84696852  0.43298431  0.17322193     0.97380
C32         C  0.76924229  0.53835079  0.25849361     0.97460
N33         N  0.63788440  0.39921046  0.25117243    -0.07850
N34         N  0.59384576  0.40925453  0.25777343    -0.63220
N35         N  0.69715596  0.36859530  0.19791651    -0.07160
N36         N  0.69405393  0.36028240  0.17281468    -0.59950
N37         N  0.67806968  0.33753753  0.21098090    -0.08470
N38         N  0.66172647  0.30769883  0.19546296    -0.62790
N39         N  0.65747942  0.43082588  0.23887089    -0.07460
N40         N  0.62773455  0.46293269  0.23696730    -0.59970
Mn41       Mn  0.67559473  0.33741794  0.25265851     1.20190
Mn42       Mn  0.72578096  0.42463194  0.21940660     1.10090
Cl43       Cl  0.75636150  0.37612848  0.25359184    -0.87940
C44         C  0.58820823  0.44938499  0.24891705     0.94390
C45         C  0.67182609  0.32200317  0.17176765     0.94190
N46         N  0.80874404  0.98231308  0.25167770    -0.08100
N47         N  0.81680003  0.01750562  0.23870658    -0.60220
N48         N  0.80742283  0.92603377  0.30580847    -0.07780
N49         N  0.81316137  0.91786383  0.33046963    -0.62340
N50         N  0.84731842  0.91994257  0.29331139    -0.07370
N51         N  0.88098039  0.90688280  0.30918634    -0.60190
N52         N  0.76793615  0.98508087  0.26365207    -0.07050
N53         N  0.74710693  0.02156393  0.25912814    -0.62700
C54         C  0.77768905  0.04144348  0.24350134     0.94080
C55         C  0.85917775  0.90634938  0.33237945     0.93860
N56         N  0.68747002  0.84955021  0.29630994    -0.08280
N57         N  0.66000420  0.83191212  0.31400431    -0.60790
N58         N  0.67081794  0.93876194  0.26543394    -0.06400
N59         N  0.64194284  0.97168486  0.26581793    -0.62050
N60         N  0.65077874  0.90624308  0.25343439    -0.08310
N61         N  0.60762335  0.91654308  0.24548906    -0.61060
N62         N  0.71129991  0.88114787  0.30700127    -0.06040
N63         N  0.70275754  0.88430584  0.33174226    -0.62130
Mn64       Mn  0.73936772  0.93353310  0.28574182     1.18440
C65         C  0.67131005  0.85345600  0.33619730     0.96160
C66         C  0.60276303  0.95762104  0.25323538     0.96830
N67         N  0.88319819  0.85890755  0.24969696    -0.08330
N68         N  0.92339747  0.84622423  0.26046333    -0.64640
N69         N  0.82260282  0.89067033  0.19612748    -0.07130
N70         N  0.81728354  0.90243286  0.17177986    -0.65310
N71         N  0.84320961  0.92130599  0.20952339    -0.07840
N72         N  0.85225537  0.95409549  0.19494620    -0.64900
N73         N  0.86304648  0.82728777  0.23705513    -0.06730
N74         N  0.88836571  0.79236649  0.23919187    -0.65590
Mn75       Mn  0.84769992  0.92127687  0.25120864     1.10660
C76         C  0.92580231  0.80446542  0.25384623     0.97380
C77         C  0.83607943  0.94223469  0.17147532     0.97460
N78         N  0.68672916  0.83989447  0.21005385    -0.07850
N79         N  0.65119876  0.83118715  0.19395455    -0.63220
N80         N  0.76692477  0.78008765  0.23908283    -0.07160
N81         N  0.78498658  0.74155605  0.24065592    -0.59950
N82         N  0.72726555  0.78293147  0.25243041    -0.08470
N83         N  0.71723146  0.74584131  0.26287575    -0.62790
N84         N  0.72719777  0.83862070  0.19748277    -0.07460
N85         N  0.72014063  0.82963340  0.17293230    -0.59970
Mn86       Mn  0.68643352  0.84362642  0.25308350     1.20190
Mn87       Mn  0.79549187  0.83367207  0.21670673     1.10090
Cl88       Cl  0.76704965  0.88280684  0.25167414    -0.87940
C89         C  0.67276438  0.82537047  0.17077033     0.94390
C90         C  0.75391240  0.72047200  0.25555858     0.94190
N91         N  0.16634591  0.18616104  0.26475773    -0.08100
N92         N  0.13701761  0.21890875  0.26448328    -0.60220
N93         N  0.18561731  0.09825212  0.29783767    -0.07780
N94         N  0.16078816  0.08061900  0.31670389    -0.62340
N95         N  0.20904671  0.13105013  0.30731681    -0.07370
N96         N  0.20301921  0.13517739  0.33222499    -0.60190
N97         N  0.14596786  0.15250670  0.25414817    -0.07050
N98         N  0.10210207  0.16175464  0.24676472    -0.62700
C99         C  0.09713294  0.20346915  0.25309682     0.94080
C100        C  0.17346343  0.10365410  0.33819923     0.93860
N101        N  0.26378223  0.02653173  0.24023783    -0.08280
N102        N  0.28061592  0.98744974  0.24097300    -0.60790
N103        N  0.18173633  0.08401190  0.21143860    -0.06400
N104        N  0.14605471  0.07279325  0.19594853    -0.62050
N105        N  0.22185313  0.08296685  0.19847823    -0.08310
N106        N  0.21430787  0.07170078  0.17432830    -0.61060
N107        N  0.22449699  0.02965361  0.25396954    -0.06040
N108        N  0.21353401  0.99224845  0.26372503    -0.62130
Mn109      Mn  0.18289747  0.09007189  0.25448048     1.18440
C110        C  0.24924573  0.96636186  0.25572020     0.96160
C111        C  0.16713897  0.06565445  0.17274539     0.96830
N112        N  0.30473052  0.17479007  0.30472712    -0.08330
N113        N  0.31039633  0.16675549  0.32945652    -0.64640
N114        N  0.30501329  0.22878577  0.24970941    -0.07130
N115        N  0.31293258  0.26310889  0.23592587    -0.65310
N116        N  0.26419747  0.23212846  0.26159157    -0.07840
N117        N  0.24321398  0.26820170  0.25624187    -0.64900
N118        N  0.34432014  0.16731708  0.29215247    -0.06730
N119        N  0.37754311  0.15338527  0.30810488    -0.65590
Mn120      Mn  0.23606212  0.18197325  0.28474602     1.10660
C121        C  0.35593994  0.15382073  0.33142230     0.97380
C122        C  0.27372728  0.28711354  0.24014272     0.97460
N123        N  0.31752372  0.13623807  0.19484275    -0.07850
N124        N  0.31332626  0.14700922  0.17019566    -0.63220
N125        N  0.38072470  0.10633148  0.24782028    -0.07160
N126        N  0.42424285  0.09618420  0.25523393    -0.59950
N127        N  0.36092821  0.07433065  0.23537035    -0.08470
N128        N  0.39016703  0.04169149  0.23416553    -0.62790
N129        N  0.33823961  0.16720309  0.20792491    -0.07460
N130        N  0.34819244  0.19923804  0.19290296    -0.59970
Mn131      Mn  0.29132286  0.07954256  0.21664726     1.20190
Mn132      Mn  0.34393318  0.16799250  0.24973068     1.10090
Cl133      Cl  0.26338872  0.12958207  0.25139146    -0.87940
C134        C  0.33268173  0.18667606  0.16941338     0.94390
C135        C  0.42949551  0.05557073  0.24668372     0.94190
N136        N  0.34550904  0.56589357  0.26288070    -0.08100
N137        N  0.37479724  0.53334583  0.26343319    -0.60220
N138        N  0.33085886  0.65543370  0.29449535    -0.07780
N139        N  0.36056499  0.67316180  0.31155824    -0.62340
N140        N  0.30835645  0.62398828  0.30552340    -0.07370
N141        N  0.32026963  0.62083856  0.32988160    -0.60190
N142        N  0.36457710  0.59795498  0.25051888    -0.07050
N143        N  0.40783780  0.58752112  0.24267257    -0.62700
C144        C  0.41345081  0.54685908  0.25071306     0.94080
C145        C  0.35219341  0.65173003  0.33376671     0.93860
N146        N  0.24401620  0.72226387  0.23929367    -0.08280
N147        N  0.22617368  0.76098977  0.24066707    -0.60790
N148        N  0.32379836  0.66697637  0.20806107    -0.06400
N149        N  0.35577371  0.68559513  0.19324082    -0.62050
N150        N  0.28244638  0.66625767  0.19594065    -0.08310
N151        N  0.28598527  0.68337161  0.17295614    -0.61060
N152        N  0.28478053  0.72045052  0.25196100    -0.06040
N153        N  0.29568750  0.75832456  0.26168148    -0.62130
Mn154      Mn  0.32751215  0.66082100  0.25121152     1.18440
C155        C  0.25849160  0.78319595  0.25473872     0.96160
C156        C  0.33167977  0.69528440  0.17128261     0.96830
N157        N  0.21227223  0.57928641  0.30578963    -0.08330
N158        N  0.20831827  0.59168346  0.33010918    -0.64640
N159        N  0.20834141  0.51960794  0.25134923    -0.07130
N160        N  0.20068591  0.48426745  0.23788223    -0.65310
N161        N  0.24980571  0.51799198  0.26287746    -0.07840
N162        N  0.27154076  0.48204672  0.25754938    -0.64900
N163        N  0.17134382  0.58290348  0.29374340    -0.06730
N164        N  0.13877098  0.59793446  0.30963369    -0.65590
Mn165      Mn  0.27885583  0.57107610  0.28451579     1.10660
C166        C  0.16223612  0.60291791  0.33233620     0.97380
C167        C  0.24073570  0.46138256  0.24190059     0.97460
N168        N  0.18906658  0.60854384  0.19612618    -0.07850
N169        N  0.19297762  0.59592915  0.17166398    -0.63220
N170        N  0.13033059  0.64038692  0.25051388    -0.07160
N171        N  0.08964541  0.65199184  0.26117275    -0.59950
N172        N  0.14893567  0.67213230  0.23794464    -0.08470
N173        N  0.12210085  0.70617746  0.24007584    -0.62790
N174        N  0.17007338  0.57795569  0.20970453    -0.07460
N175        N  0.16079943  0.54446788  0.19514092    -0.59970
Mn176      Mn  0.21550244  0.66735422  0.21670207     1.20190
Mn177      Mn  0.16808402  0.57944350  0.25152612     1.10090
Cl178      Cl  0.24782044  0.61987584  0.25087269    -0.87940
C179        C  0.17507422  0.55573288  0.17147501     0.94390
C180        C  0.08540609  0.69335964  0.25462092     0.94190
N181        N  0.59134461  0.20904241  0.04456665    -0.08100
N182        N  0.62549203  0.22497273  0.05936882    -0.60220
N183        N  0.51290428  0.13822039  0.02031493    -0.07780
N184        N  0.49456401  0.10004143  0.02078365    -0.62340
N185        N  0.55292623  0.13853152  0.00752420    -0.07370
N186        N  0.56288132  0.09985679  0.99889520    -0.60190
N187        N  0.55161898  0.20599768  0.05759727    -0.07050
N188        N  0.55797150  0.21906322  0.08157092    -0.62700
C189        C  0.60411200  0.23053251  0.08247264     0.94080
C190        C  0.52580241  0.07643061  0.00738546     0.93860
N191        N  0.39454440  0.21225201  0.00473352    -0.08280
N192        N  0.35156563  0.20042528  0.99734763    -0.60790
N193        N  0.45303015  0.24829690  0.05744702    -0.06400
N194        N  0.43835635  0.24493312  0.08128685    -0.62050
N195        N  0.42702241  0.27572035  0.04466367    -0.08310
N196        N  0.39202122  0.28939909  0.05979118    -0.61060
N197        N  0.41454380  0.18257915  0.01878437    -0.06040
N198        N  0.38567751  0.14985556  0.02105894    -0.62130
Mn199      Mn  0.48328250  0.19327153  0.03876930     1.18440
C200        C  0.34664230  0.16127726  0.00750669     0.96160
C201        C  0.40065626  0.27063946  0.08285567     0.96830
N202        N  0.58642224  0.19177212  0.96079809    -0.08330
N203        N  0.60060787  0.15952456  0.94640295    -0.64640
N204        N  0.60661158  0.28996114  0.98397310    -0.07130
N205        N  0.63308692  0.32455602  0.98393035    -0.65310
N206        N  0.62683719  0.26028963  0.99773459    -0.07840
N207        N  0.66790296  0.27382416  0.00717405    -0.64900
N208        N  0.56628949  0.22094449  0.94652232    -0.06730
N209        N  0.56622579  0.20910206  0.92197819    -0.65590
Mn210      Mn  0.59119937  0.19890218  0.00271979     1.10660
C211        C  0.58772464  0.17066609  0.92227598     0.97380
C212        C  0.67119101  0.31410556  0.99850610     0.97460
N213        N  0.47018600  0.33417021  0.99815296    -0.07850
N214        N  0.46155754  0.37276273  0.00732129    -0.63220
N215        N  0.46964951  0.27094511  0.94563968    -0.07160
N216        N  0.46245377  0.27938806  0.92115772    -0.59950
N217        N  0.42937909  0.27201273  0.95843657    -0.08470
N218        N  0.39410871  0.28192652  0.94257180    -0.62790
N219        N  0.50906170  0.33444557  0.98410184    -0.07460
N220        N  0.52766729  0.37250156  0.98348011    -0.59970
Mn221      Mn  0.42898744  0.27454159  0.00142341     1.20190
Mn222      Mn  0.53815423  0.27928179  0.96446181     1.10090
Cl223      Cl  0.51017235  0.23655622  0.00177600    -0.87940
C224        C  0.49802825  0.39605277  0.99794106     0.94390
C225        C  0.41535909  0.28589585  0.91927738     0.94190
N226        N  0.58747348  0.70874348  0.04518371    -0.08100
N227        N  0.61997495  0.72685320  0.06023265    -0.60220
N228        N  0.50872447  0.63764635  0.02034105    -0.07780
N229        N  0.49134351  0.59924005  0.02205570    -0.62340
N230        N  0.54927248  0.63760810  0.00808413    -0.07370
N231        N  0.56024480  0.59850766  0.00071041    -0.60190
N232        N  0.54727695  0.70507895  0.05776603    -0.07050
N233        N  0.55162695  0.72023953  0.08145640    -0.62700
C234        C  0.59702386  0.73348954  0.08290223     0.94080
C235        C  0.52355782  0.57515092  0.00972868     0.93860
N236        N  0.39143769  0.71565767  0.00423302    -0.08280
N237        N  0.34908382  0.70439121  0.99540720    -0.60790
N238        N  0.45216449  0.74775771  0.05720145    -0.06400
N239        N  0.44381129  0.74703260  0.08197136    -0.62050
N240        N  0.42761933  0.77743583  0.04569870    -0.08310
N241        N  0.39922703  0.79600734  0.06302066    -0.61060
N242        N  0.41087734  0.68435719  0.01723528    -0.06040
N243        N  0.38230885  0.65105689  0.01718998    -0.62130
Mn244      Mn  0.47962183  0.69295962  0.03816932     1.18440
C245        C  0.34398037  0.66386711  0.00343688     0.96160
C246        C  0.41127928  0.77720001  0.08580335     0.96830
N247        N  0.58233635  0.68906730  0.96088504    -0.08330
N248        N  0.59380105  0.65518104  0.94707043    -0.64640
N249        N  0.60609094  0.78710590  0.98246601    -0.07130
N250        N  0.63418359  0.82029199  0.98012882    -0.65310
N251        N  0.62591135  0.75822702  0.99695886    -0.07840
N252        N  0.66852416  0.77112592  0.00468876    -0.64900
N253        N  0.56198934  0.71784336  0.94630017    -0.06730
N254        N  0.55943422  0.70393169  0.92209995    -0.65590
Mn255      Mn  0.58825558  0.69760126  0.00295950     1.10660
C256        C  0.57934215  0.66466085  0.92291928     0.97380
C257        C  0.67304649  0.81014494  0.99406311     0.97460
N258        N  0.47217514  0.83549047  0.99905044    -0.07850
N259        N  0.46438567  0.87435873  0.00790327    -0.63220
N260        N  0.46736315  0.77525151  0.94555884    -0.07160
N261        N  0.46179688  0.79164292  0.92246467    -0.59950
N262        N  0.42768211  0.77864520  0.95891034    -0.08470
N263        N  0.39503759  0.79813510  0.94480215    -0.62790
N264        N  0.51088949  0.83475474  0.98479158    -0.07460
N265        N  0.53053132  0.87247665  0.98407093    -0.59970
Mn266      Mn  0.42819758  0.77761867  0.00207297     1.20190
Mn267      Mn  0.53672017  0.77843821  0.96419660     1.10090
Cl268      Cl  0.50792927  0.73664240  0.00165846    -0.87940
C269        C  0.50144853  0.89676495  0.99849964     0.94390
C270        C  0.41680396  0.80585409  0.92205623     0.94190
N271        N  0.08189504  0.95631178  0.04520558    -0.08100
N272        N  0.11411062  0.97135378  0.06153513    -0.60220
N273        N  0.00487250  0.89032263  0.01381010    -0.07780
N274        N  0.98502836  0.85305307  0.00975340    -0.62340
N275        N  0.04609116  0.89262343  0.00230690    -0.07370
N276        N  0.05553184  0.85633328  0.99019847    -0.60190
N277        N  0.04094523  0.95202692  0.05692332    -0.07050
N278        N  0.04447544  0.96395170  0.08136427    -0.62700
C279        C  0.09034365  0.97560387  0.08409648     0.94080
C280        C  0.01673366  0.83216270  0.99495777     0.93860
N281        N  0.88852645  0.96868316  0.00087081    -0.08280
N282        N  0.84552978  0.95746480  0.99265278    -0.60790
N283        N  0.94380240  0.99511633  0.05632041    -0.06400
N284        N  0.93032339  0.99119351  0.08030656    -0.62050
N285        N  0.92104229  0.02624672  0.04503938    -0.08310
N286        N  0.88982109  0.04305199  0.06136224    -0.61060
N287        N  0.90836523  0.93685164  0.01319279    -0.06040
N288        N  0.87998420  0.90371764  0.01337418    -0.62130
Mn289      Mn  0.97472341  0.94293014  0.03527166     1.18440
C290        C  0.84100893  0.91655144  0.00047007     0.96160
C291        C  0.89727415  0.02134211  0.08350994     0.96830
N292        N  0.08390911  0.95360766  0.96057584    -0.08330
N293        N  0.09959901  0.92343516  0.94508463    -0.64640
N294        N  0.10452166  0.04627835  0.98945445    -0.07130
N295        N  0.13419177  0.07854401  0.98906610    -0.65310
N296        N  0.12306600  0.01442095  0.00206550    -0.07840
N297        N  0.16621260  0.02432723  0.01042893    -0.64900
N298        N  0.06546143  0.98500728  0.94730978    -0.06730
N299        N  0.06843939  0.97648958  0.92221891    -0.65590
Mn300      Mn  0.08538239  0.95330815  0.00275556     1.10660
C301        C  0.08987433  0.93779829  0.92123874     0.97380
C302        C  0.17245694  0.06467728  0.00227165     0.97460
N303        N  0.96697742  0.09164063  0.00434516    -0.07850
N304        N  0.95699101  0.12830216  0.01585367    -0.63220
N305        N  0.96955012  0.04054954  0.94772995    -0.07160
N306        N  0.96461730  0.05890523  0.92515241    -0.59950
N307        N  0.92837473  0.03885620  0.95971501    -0.08470
N308        N  0.89507924  0.05660847  0.94528033    -0.62790
N309        N  0.00789529  0.09425758  0.99215867    -0.07460
N310        N  0.02678189  0.13217781  0.99554791    -0.59970
Mn311      Mn  0.92479321  0.03194895  0.00231752     1.20190
Mn312      Mn  0.03707426  0.04167561  0.96858703     1.10090
Cl313      Cl  0.00523170  0.99250955  0.00203188    -0.87940
C314        C  0.99497584  0.15304795  0.01039972     0.94390
C315        C  0.91818142  0.06870549  0.92371572     0.94190
N316        N  0.92832928  0.53304509  0.04434559    -0.08100
N317        N  0.89673388  0.51869089  0.06081870    -0.60220
N318        N  0.00492472  0.59651006  0.01198754    -0.07780
N319        N  0.02451447  0.63364660  0.00789647    -0.62340
N320        N  0.96301389  0.59382961  0.00095776    -0.07370
N321        N  0.95290126  0.62976394  0.98912274    -0.60190
N322        N  0.96972778  0.53800887  0.05583861    -0.07050
N323        N  0.96707559  0.52709715  0.08028731    -0.62700
C324        C  0.92133078  0.51546847  0.08323449     0.94080
C325        C  0.99200777  0.65406783  0.99353582     0.93860
N326        N  0.12086388  0.51554456  0.00013807    -0.08280
N327        N  0.16444759  0.52439255  0.99231630    -0.60790
N328        N  0.06636288  0.49484139  0.05565965    -0.06400
N329        N  0.08021283  0.50090827  0.07957221    -0.62050
N330        N  0.08842394  0.46238172  0.04500318    -0.08310
N331        N  0.11978204  0.44691154  0.06170186    -0.61060
N332        N  0.10193553  0.54918661  0.01148198    -0.06040
N333        N  0.13165369  0.58150860  0.01111680    -0.62130
Mn334      Mn  0.03555120  0.54545895  0.03388195     1.18440
C335        C  0.17035942  0.56592029  0.99898585     0.96160
C336        C  0.11294869  0.47084200  0.08343113     0.96830
N337        N  0.92297415  0.53032991  0.96010239    -0.08330
N338        N  0.90518577  0.55890498  0.94455994    -0.64640
N339        N  0.90374402  0.43927564  0.98978766    -0.07130
N340        N  0.87505578  0.40633019  0.99028167    -0.65310
N341        N  0.88486984  0.47202172  0.00181189    -0.07840
N342        N  0.84200937  0.46215529  0.01033678    -0.64900
N343        N  0.94103997  0.49814901  0.94698706    -0.06730
N344        N  0.93574571  0.50453244  0.92187839    -0.65590
Mn345      Mn  0.92317787  0.53330076  0.00205010     1.10660
C346        C  0.91330434  0.54272967  0.92081094     0.97380
C347        C  0.83681663  0.42075190  0.00321526     0.97460
N348        N  0.04062127  0.39429338  0.00464946    -0.07850
N349        N  0.05047140  0.35805250  0.01615983    -0.63220
N350        N  0.03716030  0.44270051  0.94767694    -0.07160
N351        N  0.04117328  0.42373175  0.92498220    -0.59950
N352        N  0.07865040  0.44408491  0.95962984    -0.08470
N353        N  0.11127400  0.42549538  0.94502465    -0.62790
N354        N  0.99963289  0.39134805  0.99228996    -0.07460
N355        N  0.98052067  0.35368749  0.99558918    -0.59970
Mn356      Mn  0.08345778  0.45335186  0.00225438     1.20190
Mn357      Mn  0.97026805  0.44277076  0.96859531     1.10090
Cl358      Cl  0.00338608  0.49369314  0.00149472    -0.87940
C359        C  0.01226587  0.33327460  0.01054958     0.94390
C360        C  0.08735813  0.41320495  0.92341132     0.94190
N361        N  0.81909083  0.14266295  0.79811195    -0.08100
N362        N  0.84339730  0.16362587  0.81630587    -0.60220
N363        N  0.84120747  0.05152987  0.76865076    -0.07780
N364        N  0.87043149  0.01890294  0.76916978    -0.62340
N365        N  0.86064646  0.08362022  0.75657596    -0.07370
N366        N  0.90383781  0.07325926  0.74869390    -0.60190
N367        N  0.79622816  0.11101969  0.80867919    -0.07050
N368        N  0.80228037  0.11088168  0.83372088    -0.62700
C369        C  0.83115117  0.14381803  0.83856155     0.94080
C370        C  0.90929454  0.03260687  0.75663131     0.93860
N371        N  0.70617261  0.00263411  0.75282890    -0.08280
N372        N  0.70033487  0.96641192  0.74001223    -0.60790
N373        N  0.70259130  0.06259412  0.80620495    -0.06400
N374        N  0.69533427  0.07129442  0.83076059    -0.62050
N375        N  0.66303760  0.06652234  0.79294115    -0.08310
N376        N  0.62798097  0.07867227  0.80820146    -0.61060
N377        N  0.74625238  0.00197936  0.76581314    -0.06040
N378        N  0.76865625  0.96583342  0.76226972    -0.62130
Mn379      Mn  0.77166023  0.05603818  0.78760951     1.18440
C380        C  0.73985025  0.94398904  0.74610328     0.96160
C381        C  0.64872110  0.08088714  0.83180607     0.96830
N382        N  0.82357133  0.14599950  0.71158652    -0.08330
N383        N  0.85868954  0.15723214  0.69612688    -0.64640
N384        N  0.74015620  0.20396662  0.73791815    -0.07130
N385        N  0.72160993  0.24227305  0.73730024    -0.65310
N386        N  0.77836038  0.20361536  0.75276466    -0.07840
N387        N  0.78630474  0.24204732  0.76256871    -0.64900
N388        N  0.78362003  0.14390172  0.69827120    -0.06730
N389        N  0.79076224  0.15290408  0.67393751    -0.65590
Mn390      Mn  0.82222610  0.14507844  0.75485412     1.10660
C391        C  0.83752885  0.16087959  0.67259113     0.97380
C392        C  0.75024643  0.26563942  0.75284056     0.97460
N393        N  0.62650252  0.12278530  0.74790968    -0.07850
N394        N  0.58588434  0.13519734  0.75828457    -0.63220
N395        N  0.68985688  0.08913295  0.69565867    -0.07160
N396        N  0.69363190  0.07716911  0.67112069    -0.59950
N397        N  0.67044112  0.05859133  0.70901428    -0.08470
N398        N  0.66080109  0.02546101  0.69416878    -0.62790
N399        N  0.64579452  0.15401670  0.73515564    -0.07460
N400        N  0.61940419  0.18845247  0.73680048    -0.59970
Mn401      Mn  0.66458699  0.06189975  0.75080777     1.20190
Mn402      Mn  0.71439955  0.14798102  0.71604671     1.10090
Cl403      Cl  0.74363510  0.10309138  0.75224412    -0.87940
C404        C  0.58220582  0.17640041  0.75125060     0.94390
C405        C  0.67537726  0.03718292  0.67058236     0.94190
N406        N  0.67061166  0.57844590  0.79465132    -0.08100
N407        N  0.64051490  0.56254931  0.81169281    -0.60220
N408        N  0.65589472  0.66645313  0.76209110    -0.07780
N409        N  0.62610991  0.69889633  0.76270800    -0.62340
N410        N  0.63581626  0.63324365  0.75069694    -0.07370
N411        N  0.59161087  0.64254503  0.74384108    -0.60190
N412        N  0.69361034  0.61051893  0.80532796    -0.07050
N413        N  0.68145569  0.61596426  0.82952470    -0.62700
C414        C  0.64901058  0.58574367  0.83359742     0.94080
C415        C  0.58620086  0.68385794  0.75113621     0.93860
N416        N  0.79675981  0.70741151  0.74982671    -0.08280
N417        N  0.80747408  0.74275824  0.73765965    -0.60790
N418        N  0.79252209  0.65151021  0.80427678    -0.06400
N419        N  0.79766902  0.64140637  0.82877947    -0.62050
N420        N  0.83260334  0.64518249  0.79191190    -0.08310
N421        N  0.86554163  0.63036385  0.80761801    -0.61060
N422        N  0.75538490  0.71120278  0.76109807    -0.06040
N423        N  0.73665988  0.74866174  0.75679497    -0.62130
Mn424      Mn  0.72453638  0.66088149  0.78338718     1.18440
C425        C  0.76924924  0.76786867  0.74205867     0.96160
C426        C  0.84341821  0.62859722  0.83063195     0.96830
N427        N  0.67469397  0.56191854  0.70853932    -0.08330
N428        N  0.64140754  0.54414218  0.69372268    -0.64640
N429        N  0.75400602  0.50695906  0.73925222    -0.07130
N430        N  0.77051725  0.46793267  0.74018663    -0.65310
N431        N  0.71447965  0.51047920  0.75272111    -0.07840
N432        N  0.70343366  0.47344959  0.76289104    -0.64900
N433        N  0.71555135  0.56125375  0.69615923    -0.06730
N434        N  0.71046170  0.54403471  0.67304210    -0.65590
Mn435      Mn  0.67250063  0.57027556  0.75161914     1.10660
C436        C  0.66434802  0.53347443  0.67155674     0.97380
C437        C  0.73934645  0.44755837  0.75528635     0.97460
N438        N  0.87129757  0.58451715  0.74855943    -0.07850
N439        N  0.91473301  0.57416150  0.75608426    -0.63220
N440        N  0.81236717  0.61406645  0.69472314    -0.07160
N441        N  0.81429200  0.62257077  0.66973043    -0.59950
N442        N  0.83193698  0.64515894  0.70818366    -0.08470
N443        N  0.84723645  0.67520558  0.69307912    -0.62790
N444        N  0.85163745  0.55273808  0.73589293    -0.07460
N445        N  0.88074708  0.52003132  0.73465953    -0.59970
Mn446      Mn  0.83460264  0.64628004  0.74992914     1.20190
Mn447      Mn  0.78349854  0.55867361  0.71597398     1.10090
Cl448      Cl  0.75317407  0.60884615  0.75004153    -0.87940
C449        C  0.91993834  0.53357328  0.74739869     0.94390
C450        C  0.83622082  0.66105270  0.66917959     0.94190
N451        N  0.17933843  0.32959698  0.79729950    -0.08100
N452        N  0.15568881  0.31017702  0.81591110    -0.60220
N453        N  0.16189431  0.41728924  0.76418249    -0.07780
N454        N  0.13278962  0.44999467  0.76419503    -0.62340
N455        N  0.14197716  0.38399194  0.75288961    -0.07370
N456        N  0.09844143  0.39371933  0.74512549    -0.60190
N457        N  0.20167794  0.36263403  0.80717077    -0.07050
N458        N  0.19585387  0.36549946  0.83213456    -0.62700
C459        C  0.16782910  0.33264393  0.83766547     0.94080
C460        C  0.09344049  0.43520627  0.75217702     0.93860
N461        N  0.29946736  0.46160412  0.75112823    -0.08280
N462        N  0.30818123  0.49688199  0.73834511    -0.60790
N463        N  0.29650672  0.40680315  0.80634418    -0.06400
N464        N  0.30009722  0.39510472  0.83062109    -0.62050
N465        N  0.33692301  0.40076333  0.79433131    -0.08310
N466        N  0.36870427  0.38455117  0.81024764    -0.61060
N467        N  0.25829076  0.46447961  0.76267747    -0.06040
N468        N  0.23775746  0.50102903  0.75802643    -0.62130
Mn469      Mn  0.22957431  0.41372974  0.78520278     1.18440
C470        C  0.26893532  0.52089107  0.74276254     0.96160
C471        C  0.34531215  0.38155955  0.83291835     0.96830
N472        N  0.18015677  0.31248738  0.71125458    -0.08330
N473        N  0.14684378  0.29401679  0.69681058    -0.64640
N474        N  0.26049512  0.25838919  0.74225259    -0.07130
N475        N  0.27782070  0.21962984  0.74374006    -0.65310
N476        N  0.22033742  0.26145734  0.75514364    -0.07840
N477        N  0.20915605  0.22432416  0.76511288    -0.64900
N478        N  0.22092965  0.31163467  0.69878359    -0.06730
N479        N  0.21573287  0.29343408  0.67593229    -0.65590
Mn480      Mn  0.17868164  0.32121022  0.75419528     1.10660
C481        C  0.16962222  0.28260368  0.67475363     0.97380
C482        C  0.24577462  0.19874635  0.75810992     0.97460
N483        N  0.37573997  0.33904470  0.75174943    -0.07850
N484        N  0.41731747  0.32795381  0.76164818    -0.63220
N485        N  0.31697110  0.36619932  0.69708371    -0.07160
N486        N  0.31843227  0.37399581  0.67196764    -0.59950
N487        N  0.33622368  0.39797635  0.71013094    -0.08470
N488        N  0.35098502  0.42765988  0.69456522    -0.62790
N489        N  0.35610615  0.30656344  0.73971918    -0.07460
N490        N  0.38301666  0.27259260  0.74151050    -0.59970
Mn491      Mn  0.33886294  0.40075757  0.75203026     1.20190
Mn492      Mn  0.28899303  0.31064778  0.71882864     1.10090
Cl493      Cl  0.25847252  0.36140841  0.75223745    -0.87940
C494        C  0.42091937  0.28614827  0.75527476     0.94390
C495        C  0.33989074  0.41264052  0.67084330     0.94190
N496        N  0.32333307  0.89138784  0.79733727    -0.08100
N497        N  0.34965032  0.91027156  0.81558734    -0.60220
N498        N  0.34152083  0.79986176  0.76694498    -0.07780
N499        N  0.37074504  0.76694031  0.76724208    -0.62340
N500        N  0.36146491  0.83200743  0.75510163    -0.07370
N501        N  0.40480113  0.82165862  0.74747861    -0.60190
N502        N  0.29893539  0.86058962  0.80777315    -0.07050
N503        N  0.30565586  0.85923176  0.83272822    -0.62700
C504        C  0.33676090  0.89032341  0.83774639     0.94080
C505        C  0.41007618  0.78079035  0.75494621     0.91940
N506        N  0.20288365  0.75576900  0.75262084    -0.08280
N507        N  0.19572944  0.71975581  0.73969039    -0.60790
N508        N  0.20275712  0.81745703  0.80597399    -0.06400
N509        N  0.19706057  0.83000589  0.83013816    -0.62050
N510        N  0.16318622  0.82284631  0.79284720    -0.08310
N511        N  0.13005220  0.83986783  0.80777058    -0.61060
N512        N  0.24331850  0.75402673  0.76521822    -0.06040
N513        N  0.26468816  0.71749981  0.76125927    -0.62130
Mn514      Mn  0.27160111  0.80704831  0.78671551     1.18440
C515        C  0.23489799  0.69643073  0.74528404     0.96160
C516        C  0.15160681  0.84359226  0.83110277     0.96830
N517        N  0.32501752  0.89619389  0.71063757    -0.08330
N518        N  0.36024820  0.90611275  0.69489421    -0.64640
N519        N  0.24366644  0.95642352  0.73860916    -0.07130
N520        N  0.22566377  0.99506780  0.73991396    -0.65310
N521        N  0.28316053  0.95428458  0.75239624    -0.07840
N522        N  0.29306068  0.99178841  0.76288000    -0.64900
N523        N  0.28460299  0.89605257  0.69770463    -0.06730
N524        N  0.29153736  0.90501229  0.67333203    -0.65590
Mn525      Mn  0.32487147  0.89444803  0.75386887     1.10660
C526        C  0.33864095  0.91097722  0.67156313     0.97380
C527        C  0.25661351  0.01677293  0.75512733     0.97460
N528        N  0.12658375  0.87815965  0.74723907    -0.07850
N529        N  0.08383118  0.88970576  0.75514997    -0.63220
N530        N  0.18908485  0.84310734  0.69534159    -0.07160
N531        N  0.19216725  0.83080486  0.67080423    -0.59950
N532        N  0.16900159  0.81303502  0.70885369    -0.08470
N533        N  0.15821686  0.78004331  0.69415615    -0.62790
N534        N  0.14637379  0.90899293  0.73436155    -0.07460
N535        N  0.11787815  0.94216534  0.73327168    -0.59970
Mn536      Mn  0.16356843  0.81662859  0.75064401     1.20190
Mn537      Mn  0.21563990  0.90161782  0.71588699     1.10090
Cl538      Cl  0.24414258  0.85509598  0.75169280    -0.87940
C539        C  0.07898424  0.92988236  0.74635208     0.94390
C540        C  0.17274321  0.79120253  0.67047182     0.94190
N541        N  0.41403056  0.04478430  0.46192436    -0.08100
N542        N  0.39955895  0.07662823  0.44754428    -0.60220
N543        N  0.39278550  0.94801590  0.48465828    -0.07780
N544        N  0.36369980  0.91522150  0.48287875    -0.62340
N545        N  0.37446025  0.97794324  0.49933530    -0.07370
N546        N  0.33226185  0.96623625  0.50781488    -0.60190
N547        N  0.43303438  0.01476410  0.44736650    -0.07050
N548        N  0.43188362  0.02557527  0.42282876    -0.62700
C549        C  0.41095140  0.06427736  0.42320304     0.94080
C550        C  0.32606079  0.92684338  0.49745346     0.93860
N551        N  0.53011618  0.90226908  0.49771023    -0.08280
N552        N  0.53905592  0.86412688  0.50685804    -0.60790
N553        N  0.52885327  0.96022360  0.44474694    -0.06400
N554        N  0.53452575  0.94406619  0.42132769    -0.62050
N555        N  0.56965482  0.96042935  0.45740404    -0.08310
N556        N  0.60331903  0.94406584  0.44260167    -0.61060
N557        N  0.48983538  0.90176752  0.48460624    -0.06040
N558        N  0.47041982  0.86399534  0.48477351    -0.62130
Mn559      Mn  0.46089624  0.95624977  0.46481236     1.18440
C560        C  0.50116498  0.84090996  0.49865703     0.96160
C561        C  0.58101313  0.93422320  0.42011625     0.96830
N562        N  0.41605586  0.02875320  0.54683876    -0.08330
N563        N  0.38467126  0.01063663  0.56212363    -0.64640
N564        N  0.49182781  0.10017080  0.52118643    -0.07130
N565        N  0.50945694  0.13874823  0.52171186    -0.65310
N566        N  0.45084354  0.09911020  0.50907765    -0.07840
N567        N  0.43963587  0.13743946  0.50090836    -0.64900
N568        N  0.45709618  0.03245379  0.55892055    -0.06730
N569        N  0.45438215  0.01743591  0.58247505    -0.65590
Mn570      Mn  0.41204096  0.03870542  0.50449379     1.10660
C571        C  0.40909720  0.00415559  0.58440409     0.97380
C572        C  0.47674708  0.16170793  0.50901210     0.97460
N573        N  0.60889897  0.02388628  0.50289493    -0.07850
N574        N  0.65147688  0.03541517  0.49486854    -0.63220
N575        N  0.55456927  0.99043363  0.55634257    -0.07160
N576        N  0.56928158  0.99184422  0.58036861    -0.59950
N577        N  0.57731303  0.96110194  0.54308796    -0.08470
N578        N  0.60994810  0.94330398  0.55808479    -0.62790
N579        N  0.58999773  0.05437346  0.51717224    -0.07460
N580        N  0.61906755  0.08710105  0.51900035    -0.59970
Mn581      Mn  0.57272186  0.96130444  0.50015718     1.20190
Mn582      Mn  0.52319471  0.04509609  0.53857973     1.10090
Cl583      Cl  0.49246880  0.00043178  0.50181315    -0.87940
C584        C  0.65718363  0.07512568  0.50493670     0.94390
C585        C  0.60327304  0.96217742  0.58153845     0.94190
N586        N  0.41409355  0.54902513  0.46031550    -0.08100
N587        N  0.40325922  0.58309950  0.44698454    -0.60220
N588        N  0.39007502  0.45061658  0.48079677    -0.07780
N589        N  0.36188469  0.41713773  0.47921064    -0.62340
N590        N  0.37111027  0.48020287  0.49550724    -0.07370
N591        N  0.32944279  0.46758480  0.50420878    -0.60190
N592        N  0.43401146  0.52001202  0.44540747    -0.07050
N593        N  0.43712257  0.53403385  0.42147956    -0.62700
C594        C  0.41779723  0.57354334  0.42278865     0.94080
C595        C  0.32410826  0.42807032  0.49390240     0.93860
N596        N  0.52578692  0.40314903  0.49629177    -0.08280
N597        N  0.53431131  0.36478630  0.50514407    -0.60790
N598        N  0.52948911  0.46572464  0.44484840    -0.06400
N599        N  0.53777367  0.45692143  0.42039090    -0.62050
N600        N  0.56923602  0.46444950  0.45836549    -0.08310
N601        N  0.60515660  0.45445544  0.44308054    -0.61060
N602        N  0.48688656  0.40288440  0.48196927    -0.06040
N603        N  0.46806207  0.36466888  0.48103931    -0.62130
Mn604      Mn  0.45971855  0.45950944  0.46251224     1.18440
C605        C  0.49784927  0.34128510  0.49552404     0.96160
C606        C  0.58498803  0.45027166  0.41938265     0.96830
N607        N  0.40854337  0.52977257  0.54414306    -0.08330
N608        N  0.37535544  0.51254545  0.55871969    -0.64640
N609        N  0.48859933  0.60046480  0.52091583    -0.07130
N610        N  0.50742505  0.63846868  0.52195129    -0.65310
N611        N  0.44812058  0.60047017  0.50831538    -0.07840
N612        N  0.43844676  0.63914651  0.50025511    -0.64900
N613        N  0.44846697  0.53372140  0.55722319    -0.06730
N614        N  0.44314657  0.52006825  0.58090544    -0.65590
Mn615      Mn  0.40855335  0.54071720  0.50221420     1.10660
C616        C  0.39753661  0.50720570  0.58174226     0.97380
C617        C  0.47600714  0.66225153  0.50899667     0.97460
N618        N  0.60565570  0.52305246  0.50531693    -0.07850
N619        N  0.64808463  0.53425176  0.49697616    -0.63220
N620        N  0.54356683  0.48955584  0.55660485    -0.07160
N621        N  0.55046699  0.48819834  0.58153158    -0.59950
N622        N  0.56743071  0.45975379  0.54444605    -0.08470
N623        N  0.59367907  0.43871740  0.56148652    -0.62790
N624        N  0.58659700  0.55394433  0.51914085    -0.07460
N625        N  0.61580973  0.58678626  0.52045428    -0.59970
Mn626      Mn  0.56850196  0.46162271  0.50111114     1.20190
Mn627      Mn  0.51692867  0.54525824  0.53864890     1.10090
Cl628      Cl  0.48861404  0.50172731  0.50097578    -0.87940
C629        C  0.65401933  0.57420942  0.50647986     0.94390
C630        C  0.58119269  0.45635451  0.58471471     0.94190
N631        N  0.91945580  0.29586885  0.46391807    -0.08100
N632        N  0.90938585  0.32986384  0.45034019    -0.60220
N633        N  0.89473862  0.19868764  0.48532973    -0.07780
N634        N  0.86580042  0.16585611  0.48324735    -0.62340
N635        N  0.87600119  0.22848799  0.49995940    -0.07370
N636        N  0.83357198  0.21665491  0.50804526    -0.60190
N637        N  0.93921196  0.26640333  0.44922930    -0.07050
N638        N  0.94274597  0.27999588  0.42522268    -0.62700
C639        C  0.92401599  0.31975783  0.42623616     0.94080
C640        C  0.82774671  0.17732497  0.49750496     0.93860
N641        N  0.02888161  0.15008914  0.50158768    -0.08280
N642        N  0.03703418  0.11165519  0.51051897    -0.60790
N643        N  0.03369049  0.20853359  0.44844685    -0.06400
N644        N  0.04047721  0.19254997  0.42509406    -0.62050
N645        N  0.07343704  0.20711247  0.46204979    -0.08310
N646        N  0.10759317  0.18996590  0.44784470    -0.61060
N647        N  0.99054549  0.14984336  0.48679570    -0.06040
N648        N  0.97215600  0.11157730  0.48521678    -0.62130
Mn649      Mn  0.96416329  0.20598618  0.46680345     1.18440
C650        C  0.00115724  0.08833022  0.50012245     0.96160
C651        C  0.08657205  0.18122157  0.42479738     0.96830
N652        N  0.91507237  0.27941762  0.54840073    -0.08330
N653        N  0.88299211  0.26174102  0.56346518    -0.64640
N654        N  0.99386379  0.34955456  0.52372875    -0.07130
N655        N  0.01157436  0.38803685  0.52490597    -0.65310
N656        N  0.95327214  0.34886824  0.51126006    -0.07840
N657        N  0.94255987  0.38734669  0.50325072    -0.64900
N658        N  0.95540063  0.28388068  0.56104811    -0.06730
N659        N  0.95157673  0.26990547  0.58475598    -0.65590
Mn660      Mn  0.91395785  0.28891104  0.50604493     1.10660
C661        C  0.90638474  0.25639807  0.58620706     0.97380
C662        C  0.97940789  0.41127086  0.51203810     0.97460
N663        N  0.11022409  0.27028980  0.50798863    -0.07850
N664        N  0.15239118  0.28164919  0.49925196    -0.63220
N665        N  0.04949989  0.23942264  0.56020325    -0.07160
N666        N  0.05609422  0.23841550  0.58516476    -0.59950
N667        N  0.07216751  0.20856055  0.54837763    -0.08470
N668        N  0.09720122  0.18692841  0.56566087    -0.62790
N669        N  0.09112645  0.30168714  0.52141410    -0.07460
N670        N  0.11977585  0.33481812  0.52207026    -0.59970
Mn671      Mn  0.07271806  0.20828746  0.50507410     1.20190
Mn672      Mn  0.02270204  0.29445410  0.54167384     1.10090
Cl673      Cl  0.99362987  0.24940637  0.50469109    -0.87940
C674        C  0.15782177  0.32211795  0.50814494     0.94390
C675        C  0.08529142  0.20553888  0.58869114     0.94190
N676        N  0.91511511  0.79326322  0.46038127    -0.08100
N677        N  0.90151177  0.82559035  0.44632391    -0.60220
N678        N  0.89273842  0.69590540  0.48223413    -0.07780
N679        N  0.86363606  0.66302134  0.48039363    -0.62340
N680        N  0.87381213  0.72607114  0.49650916    -0.07370
N681        N  0.83143373  0.71447792  0.50470184    -0.60190
N682        N  0.93462037  0.76360345  0.44583741    -0.07050
N683        N  0.93488964  0.77524971  0.42144276    -0.62700
C684        C  0.91409245  0.81402082  0.42212288     0.94080
C685        C  0.82546574  0.67494913  0.49457432     0.93860
N686        N  0.03066439  0.65154174  0.49702428    -0.08280
N687        N  0.03959462  0.61358600  0.50644229    -0.60790
N688        N  0.03084711  0.71234911  0.44485262    -0.06400
N689        N  0.03818320  0.70271247  0.42042050    -0.62050
N690        N  0.07120084  0.71246373  0.45782850    -0.08310
N691        N  0.10661004  0.70229487  0.44220371    -0.61060
N692        N  0.99127880  0.65045330  0.48313318    -0.06040
N693        N  0.97268587  0.61228184  0.48286511    -0.62130
Mn694      Mn  0.96211319  0.70520957  0.46342437     1.18440
C695        C  0.00291987  0.58965514  0.49740345     0.96160
C696        C  0.08543332  0.69679138  0.41884026     0.96830
N697        N  0.91137419  0.77713079  0.54405364    -0.08330
N698        N  0.87761961  0.76032528  0.55829721    -0.64640
N699        N  0.98875655  0.84876409  0.52119441    -0.07130
N700        N  0.00520521  0.88768135  0.52305900    -0.65310
N701        N  0.94928683  0.84738965  0.50764757    -0.07840
N702        N  0.93828976  0.88574889  0.49946496    -0.64900
N703        N  0.95108225  0.78066949  0.55739498    -0.06730
N704        N  0.94494381  0.76715804  0.58108185    -0.65590
Mn705      Mn  0.91085720  0.78692983  0.50225714     1.10660
C706        C  0.89903221  0.75486079  0.58141983     0.97380
C707        C  0.97362826  0.91024262  0.50939087     0.97460
N708        N  0.10740944  0.77360120  0.50436711    -0.07850
N709        N  0.14987431  0.78545056  0.49643743    -0.63220
N710        N  0.05009571  0.73869651  0.55675699    -0.07160
N711        N  0.06422673  0.74053217  0.58088672    -0.59950
N712        N  0.07444532  0.71018229  0.54364092    -0.08470
N713        N  0.10757763  0.69365180  0.55886451    -0.62790
N714        N  0.08796529  0.80379508  0.51864752    -0.07460
N715        N  0.11679978  0.83678700  0.52057313    -0.59970
Mn716      Mn  0.07220392  0.71108645  0.50061119     1.20190
Mn717      Mn  0.01934935  0.79362869  0.53879409     1.10090
Cl718      Cl  0.99135578  0.74919488  0.50117860    -0.87940
C719        C  0.15522152  0.82508748  0.50655914     0.94390
C720        C  0.09957859  0.71219649  0.58228452     0.94190
C721        C  0.02191464  0.47874952  0.52111644    -0.15320
C722        C  0.98450533  0.45702019  0.50865491     0.06830
C723        C  0.95286437  0.47920289  0.49292742    -0.15320
C724        C  0.95887356  0.52257482  0.48949755    -0.15320
C725        C  0.99656371  0.54424631  0.50175655     0.06830
C726        C  0.02791691  0.52213190  0.51769538    -0.15320
H727        H  0.04673628  0.46220127  0.53348081     0.10810
H728        H  0.92389023  0.46304045  0.48313772     0.10810
H729        H  0.93415039  0.53905919  0.47705101     0.10810
H730        H  0.05704460  0.53823948  0.52736423     0.10810
C731        C  0.99184576  0.02463667  0.52707223    -0.15320
C732        C  0.99554492  0.04267901  0.50267714     0.06830
C733        C  0.99007704  0.01736157  0.48037719    -0.15320
C734        C  0.98119195  0.97403576  0.48245198    -0.15320
C735        C  0.97749651  0.95600361  0.50684873     0.06830
C736        C  0.98292584  0.98131761  0.52914385    -0.15320
H737        H  0.99514911  0.04410418  0.54438565     0.10810
H738        H  0.99289505  0.03116537  0.46142010     0.10810
H739        H  0.97826277  0.95449826  0.46513886     0.10810
H740        H  0.98047825  0.96743845  0.54809754     0.10810
C741        C  0.27982062  0.35948605  0.48681375    -0.15320
C742        C  0.28190661  0.40060256  0.49771961     0.06830
C743        C  0.24301135  0.41544663  0.51207699    -0.15320
C744        C  0.20283979  0.38993807  0.51530776    -0.15320
C745        C  0.20059439  0.34889273  0.50434129     0.06830
C746        C  0.23960115  0.33387854  0.49010396    -0.15320
H747        H  0.30929088  0.34708332  0.47568502     0.10810
H748        H  0.24349449  0.44689250  0.52072986     0.10810
H749        H  0.17344627  0.40245531  0.52645201     0.10810
H750        H  0.23902719  0.30239884  0.48149865     0.10810
C751        C  0.70147652  0.64078363  0.51442195    -0.15320
C752        C  0.69779601  0.60004971  0.50318021     0.06830
C753        C  0.73663862  0.58404313  0.48912984    -0.15320
C754        C  0.77813395  0.60821078  0.48641443    -0.15320
C755        C  0.78178764  0.64893880  0.49768972     0.06830
C756        C  0.74295434  0.66490482  0.51173562    -0.15320
H757        H  0.67227492  0.65405414  0.52538364     0.10810
H758        H  0.73501911  0.55277493  0.48026776     0.10810
H759        H  0.80739360  0.59497129  0.47545698     0.10810
H760        H  0.74454898  0.69613648  0.52062980     0.10810
C761        C  0.27972317  0.86011998  0.48859696    -0.15320
C762        C  0.28259758  0.90061968  0.50025703     0.06830
C763        C  0.24323955  0.91603371  0.51404136    -0.15320
C764        C  0.20184104  0.89159364  0.51597164    -0.15320
C765        C  0.19889148  0.85118814  0.50419426     0.06830
C766        C  0.23836724  0.83569012  0.49053777    -0.15320
H767        H  0.30946772  0.84728420  0.47785364     0.10810
H768        H  0.24432036  0.94707012  0.52320803     0.10810
H769        H  0.17209424  0.90438848  0.52670126     0.10810
H770        H  0.23732919  0.80464959  0.48134963     0.10810
C771        C  0.45085549  0.77672078  0.49566486    -0.15320
C772        C  0.49459682  0.79548626  0.50237452     0.06830
C773        C  0.53203191  0.77027585  0.51109185    -0.15320
C774        C  0.52589371  0.72664479  0.51288000    -0.15320
C775        C  0.48222380  0.70786731  0.50603902     0.06830
C776        C  0.44473303  0.73309812  0.49743355    -0.15320
H777        H  0.42138200  0.79573151  0.48891728     0.10810
H778        H  0.56609779  0.78412944  0.51610858     0.10810
H779        H  0.55542129  0.70760037  0.51954772     0.10810
H780        H  0.41073418  0.71922338  0.49229683     0.10810
C781        C  0.52305992  0.22834962  0.51384416    -0.15320
C782        C  0.48158074  0.20760217  0.50527028     0.06830
C783        C  0.44529251  0.23111476  0.49364781    -0.15320
C784        C  0.45048835  0.27482399  0.49064665    -0.15320
C785        C  0.49199980  0.29549473  0.49926856     0.06830
C786        C  0.52817933  0.27194523  0.51091844    -0.15320
H787        H  0.55169956  0.21089694  0.52284589     0.10810
H788        H  0.41298479  0.21580575  0.48696817     0.10810
H789        H  0.42203365  0.29242075  0.48161090     0.10810
H790        H  0.56058491  0.28712730  0.51758157     0.10810
C791        C  0.70334346  0.14148228  0.51481296    -0.15320
C792        C  0.70092373  0.10111377  0.50291502     0.06830
C793        C  0.74086104  0.08573968  0.48966658    -0.15320
C794        C  0.78216447  0.11035421  0.48818524    -0.15320
C795        C  0.78443781  0.15086027  0.49991824     0.06830
C796        C  0.74464001  0.16606602  0.51335399    -0.15320
H797        H  0.67321276  0.15418409  0.52527386     0.10810
H798        H  0.74020641  0.05471347  0.48045231     0.10810
H799        H  0.81230693  0.09769015  0.47772531     0.10810
H800        H  0.74527611  0.19707775  0.52258085     0.10810
C801        C  0.40460398  0.95000259  0.64943936    -0.15320
C802        C  0.35966146  0.93091209  0.64854827     0.06830
C803        C  0.33163752  0.93527679  0.62612408    -0.15320
C804        C  0.34742149  0.95929983  0.60540261    -0.15320
C805        C  0.39176593  0.97933069  0.60651779     0.06830
C806        C  0.42054656  0.97394449  0.62858231    -0.15320
H807        H  0.42677712  0.94750310  0.66649286     0.10810
H808        H  0.29677643  0.92091700  0.62480338     0.10810
H809        H  0.32479643  0.96230571  0.58855236     0.10810
H810        H  0.45520063  0.98868312  0.62986794     0.10810
C811        C  0.18142837  0.77505087  0.62293454    -0.15320
C812        C  0.16529451  0.76350580  0.64741539     0.06830
C813        C  0.13807105  0.72623297  0.64965490    -0.15320
C814        C  0.12250474  0.70398329  0.62768075    -0.15320
C815        C  0.13466114  0.71796605  0.60307295     0.06830
C816        C  0.16650729  0.75217905  0.60093332    -0.15320
H817        H  0.20282152  0.80328754  0.62062998     0.10810
H818        H  0.12547757  0.71609969  0.66829827     0.10810
H819        H  0.09686259  0.67866148  0.62983140     0.10810
H820        H  0.17511579  0.76442783  0.58209039     0.10810
C821        C  0.33055547  0.42863647  0.62323165    -0.15320
C822        C  0.35225903  0.43632130  0.64734539     0.06830
C823        C  0.38641614  0.46865304  0.64959836    -0.15320
C824        C  0.39945675  0.49224227  0.62833374    -0.15320
C825        C  0.37832462  0.48468794  0.60419216     0.06830
C826        C  0.34327321  0.45301649  0.60175139    -0.15320
H827        H  0.30391957  0.40408553  0.62104759     0.10810
H828        H  0.40390133  0.47543085  0.66786545     0.10810
H829        H  0.42671323  0.51625565  0.63075320     0.10810
H830        H  0.32695521  0.44625543  0.58317988     0.10810
C831        C  0.17857787  0.24335950  0.63268980    -0.15320
C832        C  0.15059213  0.25380357  0.65433198     0.06830
C833        C  0.10525423  0.23586827  0.65625760    -0.15320
C834        C  0.08658258  0.21155691  0.63580147    -0.15320
C835        C  0.11256468  0.20530336  0.61291059     0.06830
C836        C  0.15977917  0.21918849  0.61219314    -0.15320
H837        H  0.21414587  0.25597440  0.63087318     0.10810
H838        H  0.08331290  0.24241707  0.67293420     0.10810
H839        H  0.04968173  0.20200975  0.63659561     0.10810
H840        H  0.18013286  0.21596122  0.59459586     0.10810
C841        C  0.29992867  0.59361723  0.73597277    -0.15320
C842        C  0.26189738  0.56510478  0.73510759     0.06830
C843        C  0.21534144  0.58059844  0.73225394    -0.15320
C844        C  0.20648291  0.62419356  0.73286508    -0.15320
C845        C  0.24408878  0.65253674  0.73688244     0.06830
C846        C  0.29100938  0.63717141  0.73710385    -0.15320
H847        H  0.33598492  0.58230991  0.73829383     0.10810
H848        H  0.18551875  0.55890662  0.73145960     0.10810
H849        H  0.17013885  0.63539124  0.73259621     0.10810
H850        H  0.32063985  0.65871616  0.73993605     0.10810
C851        C  0.29472491  0.08752128  0.76273321    -0.15320
C852        C  0.25336955  0.06302148  0.75998139     0.06830
C853        C  0.20903788  0.08352963  0.75954245    -0.15320
C854        C  0.20622767  0.12789806  0.76088118    -0.15320
C855        C  0.24778787  0.15241763  0.76187338     0.06830
C856        C  0.29198871  0.13187197  0.76325669    -0.15320
H857        H  0.32929637  0.07249132  0.76299709     0.10810
H858        H  0.17664771  0.06526084  0.75748177     0.10810
H859        H  0.17178304  0.14303988  0.75956179     0.10810
H860        H  0.32452098  0.15019143  0.76397446     0.10810
C861        C  0.67357445  0.49676924  0.62868526    -0.15320
C862        C  0.64569833  0.50535037  0.65066715     0.06830
C863        C  0.60118049  0.48585950  0.65256358    -0.15320
C864        C  0.58316634  0.46160663  0.63189206    -0.15320
C865        C  0.60895313  0.45691365  0.60880416     0.06830
C866        C  0.65541370  0.47269453  0.60796954    -0.15320
H867        H  0.70854377  0.51067468  0.62684279     0.10810
H868        H  0.57939386  0.49095126  0.66946839     0.10810
H869        H  0.54678363  0.45065770  0.63278446     0.10810
H870        H  0.67551983  0.47080807  0.59022101     0.10810
C871        C  0.87750021  0.72169649  0.64937809    -0.15320
C872        C  0.84885387  0.68544015  0.64607856     0.06830
C873        C  0.83379158  0.67363318  0.62111973    -0.15320
C874        C  0.84803693  0.69753454  0.59982140    -0.15320
C875        C  0.87808063  0.73281846  0.60336582     0.06830
C876        C  0.89230828  0.74479738  0.62826829    -0.15320
H877        H  0.88962372  0.73185564  0.66834619     0.10810
H878        H  0.81162177  0.64594750  0.61809662     0.10810
H879        H  0.83721547  0.68753626  0.58058495     0.10810
H880        H  0.91551809  0.77181771  0.63137805     0.10810
C881        C  0.00589494  0.52602173  0.75935815    -0.15320
C882        C  0.96419906  0.50830351  0.74898500     0.06830
C883        C  0.96541407  0.46640621  0.73918901    -0.15320
C884        C  0.00743997  0.44266526  0.73982560    -0.15320
C885        C  0.04912725  0.46038859  0.75022916     0.06830
C886        C  0.04791058  0.50235986  0.75992088    -0.15320
H887        H  0.00613730  0.55824146  0.76690448     0.10810
H888        H  0.93381074  0.45189867  0.73099406     0.10810
H889        H  0.00722420  0.41043490  0.73233685     0.10810
H890        H  0.07946907  0.51694746  0.76812465     0.10810
C891        C  0.54137601  0.75288247  0.74969022    -0.15320
C892        C  0.54078102  0.70823811  0.75003597     0.06830
C893        C  0.49657526  0.68755384  0.75106395    -0.15320
C894        C  0.45413242  0.71103430  0.75254853    -0.15320
C895        C  0.45480560  0.75570561  0.75226995     0.06830
C896        C  0.49892820  0.77628949  0.75039957    -0.15320
H897        H  0.57483623  0.76976579  0.74898464     0.10810
H898        H  0.49491399  0.65325740  0.75160805     0.10810
H899        H  0.42071069  0.69422797  0.75396749     0.10810
H900        H  0.50073549  0.81061476  0.75028772     0.10810
C901        C  0.64190415  0.97241471  0.64894512    -0.15320
C902        C  0.66880863  0.00994711  0.64729305     0.06830
C903        C  0.68519635  0.02250177  0.62306003    -0.15320
C904        C  0.67059525  0.00049582  0.60071263    -0.15320
C905        C  0.63868483  0.96624917  0.60225832     0.06830
C906        C  0.62656870  0.95104206  0.62660063    -0.15320
H907        H  0.62919619  0.96154147  0.66740062     0.10810
H908        H  0.70641111  0.05096633  0.62121819     0.10810
H909        H  0.67924471  0.01361666  0.58209469     0.10810
H910        H  0.60093686  0.92561744  0.62829864     0.10810
C911        C  0.83010614  0.18573408  0.62732029    -0.15320
C912        C  0.85800131  0.18183451  0.64983246     0.06830
C913        C  0.90215308  0.20224372  0.65108854    -0.15320
C914        C  0.91753117  0.22685949  0.63044864    -0.15320
C915        C  0.88895864  0.23159923  0.60823838     0.06830
C916        C  0.84533107  0.21045340  0.60679632    -0.15320
H917        H  0.79581587  0.17038411  0.62575554     0.10810
H918        H  0.92416940  0.20012446  0.66822904     0.10810
H919        H  0.95170196  0.24244990  0.63197155     0.10810
H920        H  0.82296409  0.21296623  0.58981442     0.10810
C921        C  0.99523002  0.94035169  0.76122927    -0.15320
C922        C  0.03581380  0.95642410  0.74922132     0.06830
C923        C  0.03452236  0.99791149  0.73945755    -0.15320
C924        C  0.99344486  0.02278075  0.74165811    -0.15320
C925        C  0.95284553  0.00661286  0.75364268     0.06830
C926        C  0.95421021  0.96513378  0.76337770    -0.15320
H927        H  0.99507720  0.90854454  0.76886668     0.10810
H928        H  0.06530402  0.01118982  0.73007352     0.10810
H929        H  0.99349704  0.05462213  0.73404487     0.10810
H930        H  0.92348555  0.95172626  0.77274708     0.10810
C931        C  0.79566557  0.88352798  0.74145521    -0.15320
C932        C  0.74968547  0.90007296  0.73813273     0.06830
C933        C  0.71255251  0.87298802  0.73067199    -0.15320
C934        C  0.72017840  0.82927585  0.72954612    -0.15320
C935        C  0.76517830  0.81253987  0.73523002     0.06830
C936        C  0.80347620  0.83990400  0.73977422    -0.15320
H937        H  0.82500712  0.90406069  0.74695813     0.10810
H938        H  0.67696820  0.88513431  0.72789088     0.10810
H939        H  0.69027130  0.80836373  0.72600543     0.10810
H940        H  0.83829854  0.82744334  0.74441880     0.10810
C941        C  0.73308816  0.33451868  0.73263096    -0.15320
C942        C  0.74638876  0.31218743  0.75475765     0.06830
C943        C  0.75507868  0.33464102  0.77791934    -0.15320
C944        C  0.75044768  0.37907047  0.77876420    -0.15320
C945        C  0.73813048  0.40110838  0.75632920     0.06830
C946        C  0.72964250  0.37855696  0.73333191    -0.15320
H947        H  0.72651122  0.31790854  0.71452223     0.10810
H948        H  0.76513320  0.31788496  0.79521270     0.10810
H949        H  0.75785615  0.39625419  0.79658376     0.10810
H950        H  0.72088192  0.39519451  0.71577078     0.10810
C951        C  0.54786747  0.24891483  0.75683413    -0.15320
C952        C  0.54177134  0.20460052  0.75700539     0.06830
C953        C  0.49615193  0.18781493  0.76014833    -0.15320
C954        C  0.45685038  0.21484930  0.76106258    -0.15320
C955        C  0.46272016  0.25905679  0.75956167     0.06830
C956        C  0.50862234  0.27601513  0.75844447    -0.15320
H957        H  0.58288429  0.26255509  0.75456034     0.10810
H958        H  0.49060186  0.15382237  0.76028056     0.10810
H959        H  0.42162602  0.20112391  0.76192665     0.10810
H960        H  0.51391609  0.30995303  0.75706427     0.10810
C961        C  0.85930847  0.59373223  0.89938152    -0.15320
C962        C  0.89649655  0.56412167  0.89729065     0.06830
C963        C  0.91732788  0.55666965  0.87313054    -0.15320
C964        C  0.90122879  0.57879835  0.85145334    -0.15320
C965        C  0.86343976  0.60787978  0.85361431     0.06830
C966        C  0.84264238  0.61502223  0.87775165    -0.15320
H967        H  0.84250406  0.60007124  0.91778164     0.10810
H968        H  0.94620037  0.53421958  0.87109075     0.10810
H969        H  0.91754078  0.57243996  0.83292415     0.10810
H970        H  0.81338571  0.63707976  0.87990781     0.10810
C971        C  0.07656044  0.37076996  0.88253754    -0.15320
C972        C  0.10585874  0.38384358  0.90329084     0.06830
C973        C  0.15232562  0.36810210  0.90467257    -0.15320
C974        C  0.17051392  0.34328202  0.88446151    -0.15320
C975        C  0.14280015  0.33415767  0.86239366     0.06830
C976        C  0.09486841  0.34601218  0.86227326    -0.15320
H977        H  0.04019953  0.38168555  0.88120080     0.10810
H978        H  0.17540014  0.37678540  0.92067727     0.10810
H979        H  0.20793927  0.33533861  0.88471158     0.10810
H980        H  0.07316801  0.34054753  0.84522424     0.10810
C981        C  0.85172659  0.11236820  0.90561992    -0.15320
C982        C  0.89828321  0.09695384  0.90371827     0.06830
C983        C  0.92604497  0.10906666  0.88251434    -0.15320
C984        C  0.90601722  0.13229625  0.86230687    -0.15320
C985        C  0.85789537  0.14360167  0.86297303     0.06830
C986        C  0.83184380  0.13567908  0.88549125    -0.15320
H987        H  0.82983405  0.10449529  0.92198324     0.10810
H988        H  0.96245283  0.09842348  0.88077829     0.10810
H989        H  0.92652928  0.13693920  0.84495060     0.10810
H990        H  0.79436208  0.14330784  0.88622847     0.10810
C991        C  0.09920082  0.89961267  0.85131416    -0.15320
C992        C  0.13186415  0.86607131  0.85382855     0.06830
C993        C  0.14940841  0.85626682  0.87836204    -0.15320
C994        C  0.13497210  0.87945480  0.89999167    -0.15320
C995        C  0.10329851  0.91369426  0.89764702     0.06830
C996        C  0.08533795  0.92359778  0.87309281    -0.15320
H997        H  0.08567489  0.90812427  0.83246457     0.10810
H998        H  0.17473670  0.83076369  0.88080253     0.10810
H999        H  0.14951782  0.87093390  0.91861365     0.10810
H1000       H  0.06077387  0.94972459  0.87076328     0.10810
C1001       C  0.95810312  0.72587398  0.98595352    -0.15320
C1002       C  0.99758484  0.69894845  0.98676703     0.06830
C1003       C  0.04347617  0.71640658  0.98546846    -0.15320
C1004       C  0.04992959  0.76035464  0.98562926    -0.15320
C1005       C  0.01055454  0.78726007  0.98762728     0.06830
C1006       C  0.96457800  0.76982866  0.98664937    -0.15320
H1007       H  0.92247665  0.71310949  0.98699059     0.10810
H1008       H  0.07446782  0.69606382  0.98592072     0.10810
H1009       H  0.08562976  0.77310596  0.98636491     0.10810
H1010       H  0.93365684  0.79016650  0.98797573     0.10810
C1011       C  0.96281335  0.26866431  0.01662816    -0.15320
C1012       C  0.00792216  0.28777680  0.01639792     0.06830
C1013       C  0.04846721  0.26215630  0.01814209    -0.15320
C1014       C  0.04402998  0.21793540  0.01775988    -0.15320
C1015       C  0.99898402  0.19879893  0.01633076     0.06830
C1016       C  0.95835640  0.22446970  0.01693353    -0.15320
H1017       H  0.93101011  0.28788053  0.01536727     0.10810
H1018       H  0.08357687  0.27614762  0.01788706     0.10810
H1019       H  0.07585897  0.19865889  0.01738522     0.10810
H1020       H  0.92330065  0.21043847  0.01572063     0.10810
C1021       C  0.61847144  0.60153660  0.90223512    -0.15320
C1022       C  0.58751747  0.63642998  0.90021983     0.06830
C1023       C  0.56784028  0.64574576  0.87600818    -0.15320
C1024       C  0.58219881  0.62305603  0.85394920    -0.15320
C1025       C  0.61696114  0.59114582  0.85566072     0.06830
C1026       C  0.63349763  0.57946793  0.88010967    -0.15320
H1027       H  0.63405974  0.59338503  0.92066292     0.10810
H1028       H  0.54362742  0.67220624  0.87388013     0.10810
H1029       H  0.57022069  0.63370135  0.83520888     0.10810
H1030       H  0.66153946  0.55613720  0.88186063     0.10810
C1031       C  0.35527351  0.85597607  0.90455202    -0.15320
C1032       C  0.39926058  0.83552272  0.90205739     0.06830
C1033       C  0.42746798  0.84460580  0.88042121    -0.15320
C1034       C  0.41014095  0.87027887  0.86057989    -0.15320
C1035       C  0.36415209  0.88715340  0.86190270     0.06830
C1036       C  0.33801129  0.88162772  0.88471027    -0.15320
H1037       H  0.33318438  0.85049663  0.92120964     0.10810
H1038       H  0.46204631  0.83006056  0.87814482     0.10810
H1039       H  0.43046758  0.87276919  0.84297630     0.10810
H1040       H  0.30191402  0.89332950  0.88593753     0.10810
C1041       C  0.30158369  0.59368521  0.00055322    -0.15320
C1042       C  0.30013525  0.63829082  0.99992744     0.06830
C1043       C  0.25599081  0.65848455  0.99717947    -0.15320
C1044       C  0.21401754  0.63470755  0.99617771    -0.15320
C1045       C  0.21531117  0.59015933  0.99711877     0.06830
C1046       C  0.25957611  0.56978194  0.99878352    -0.15320
H1047       H  0.33519519  0.57732700  0.00264801     0.10810
H1048       H  0.25376394  0.69277779  0.99679919     0.10810
H1049       H  0.18033895  0.65123377  0.99502515     0.10810
H1050       H  0.26154701  0.53553952  0.99984738     0.10810
C1051       C  0.71546488  0.87863917  0.98526300    -0.15320
C1052       C  0.71569402  0.83772857  0.99598759     0.06830
C1053       C  0.75730031  0.82321895  0.00789027    -0.15320
C1054       C  0.79783173  0.84883376  0.00891919    -0.15320
C1055       C  0.79775999  0.88973746  0.99821810     0.06830
C1056       C  0.75606981  0.90443320  0.98640679    -0.15320
H1057       H  0.68381015  0.89077332  0.97596099     0.10810
H1058       H  0.75867284  0.79193199  0.01624562     0.10810
H1059       H  0.82934935  0.83649397  0.01825458     0.10810
H1060       H  0.75480677  0.93579462  0.97813848     0.10810
C1061       C  0.57823615  0.15395544  0.87513794    -0.15320
C1062       C  0.59871329  0.14492182  0.89922283     0.06830
C1063       C  0.63177373  0.11181290  0.90114513    -0.15320
C1064       C  0.64611348  0.08956901  0.87918840    -0.15320
C1065       C  0.62700231  0.09945490  0.85498966     0.06830
C1066       C  0.59201776  0.13101497  0.85311689    -0.15320
H1067       H  0.55245944  0.17926465  0.87326355     0.10810
H1068       H  0.64804263  0.10415566  0.91948829     0.10810
H1069       H  0.67326460  0.06543089  0.88100627     0.10810
H1070       H  0.57728096  0.13943939  0.83452129     0.10810
C1071       C  0.42186189  0.31091770  0.87414351    -0.15320
C1072       C  0.39433158  0.30679464  0.89653935     0.06830
C1073       C  0.35012662  0.32725637  0.89781702    -0.15320
C1074       C  0.33437151  0.35216546  0.87726289    -0.15320
C1075       C  0.36266350  0.35707797  0.85517864     0.06830
C1076       C  0.40630355  0.33587148  0.85375922    -0.15320
H1077       H  0.45612534  0.29558833  0.87257988     0.10810
H1078       H  0.32839494  0.32498151  0.91492411     0.10810
H1079       H  0.30021170  0.36775029  0.87871105     0.10810
H1080       H  0.42849878  0.33846175  0.83684540     0.10810
C1081       C  0.21936238  0.13007394  0.99392756    -0.15320
C1082       C  0.21694283  0.08935519  0.00460322     0.06830
C1083       C  0.25762258  0.07230775  0.01632030    -0.15320
C1084       C  0.30001740  0.09555489  0.01715842    -0.15320
C1085       C  0.30239236  0.13613070  0.00623569     0.06830
C1086       C  0.26161581  0.15314625  0.99467577    -0.15320
H1087       H  0.18859154  0.14410185  0.98474920     0.10810
H1088       H  0.25677783  0.04097241  0.02462469     0.10810
H1089       H  0.33094995  0.08173409  0.02628605     0.10810
H1090       H  0.26226805  0.18441411  0.98625754     0.10810
C1091       C  0.54783608  0.50580347  0.99077971    -0.15320
C1092       C  0.51847814  0.52917372  0.00728312     0.06830
C1093       C  0.48275149  0.50851383  0.02124692    -0.15320
C1094       C  0.47598676  0.46497593  0.01844256    -0.15320
C1095       C  0.50492422  0.44168160  0.00166348     0.06830
C1096       C  0.54107640  0.46228670  0.98797130    -0.15320
H1097       H  0.57541157  0.52117566  0.97981934     0.10810
H1098       H  0.45978438  0.52603067  0.03427191     0.10810
H1099       H  0.44818907  0.44965836  0.02925131     0.10810
H1100       H  0.56393015  0.44486995  0.97484708     0.10810
C1101       C  0.47591227  0.01216851  0.01012438    -0.15320
C1102       C  0.51983590  0.03062183  0.00402464     0.06830
C1103       C  0.55772603  0.00484225  0.99631647    -0.15320
C1104       C  0.55179955  0.96097273  0.99497140    -0.15320
C1105       C  0.50795598  0.94257920  0.00131480     0.06830
C1106       C  0.47005231  0.96840908  0.00886219    -0.15320
H1107       H  0.44600487  0.03157059  0.01600614     0.10810
H1108       H  0.59190478  0.01846293  0.99175173     0.10810
H1109       H  0.58154101  0.94142773  0.98904401     0.10810
H1110       H  0.43582936  0.95487951  0.01344667     0.10810
C1111       C  0.70806622  0.38655968  0.00120115    -0.15320
C1112       C  0.71260677  0.34219440  0.00280149     0.06830
C1113       C  0.75765878  0.32461207  0.00707240    -0.15320
C1114       C  0.79777042  0.35065850  0.00827777    -0.15320
C1115       C  0.79350281  0.39488370  0.00602570     0.06830
C1116       C  0.74819777  0.41280226  0.00316701    -0.15320
H1117       H  0.67358159  0.40086174  0.99798115     0.10810
H1118       H  0.76215499  0.29056909  0.00828251     0.10810
H1119       H  0.83243441  0.33611037  0.01035123     0.10810
H1120       H  0.74413128  0.44674864  0.00105416     0.10810
C1121       C  0.32103625  0.73025776  0.12823954    -0.15320
C1122       C  0.34880422  0.72377820  0.15058588     0.06830
C1123       C  0.39184708  0.74581882  0.15312249    -0.15320
C1124       C  0.40852575  0.77085445  0.13292016    -0.15320
C1125       C  0.38295246  0.77405411  0.10956671     0.06830
C1126       C  0.33796142  0.75506512  0.10792982    -0.15320
H1127       H  0.28723079  0.71425661  0.12583583     0.10810
H1128       H  0.41357845  0.74234677  0.17026039     0.10810
H1129       H  0.44395340  0.78402859  0.13445057     0.10810
H1130       H  0.31821178  0.75549693  0.08993094     0.10810
C1131       C  0.13261983  0.46442806  0.12927194    -0.15320
C1132       C  0.14662368  0.47742613  0.10476049     0.06830
C1133       C  0.17744521  0.51243715  0.10281956    -0.15320
C1134       C  0.18895459  0.53722203  0.12464280    -0.15320
C1135       C  0.17063785  0.52669326  0.14881576     0.06830
C1136       C  0.14486231  0.48859117  0.15113033    -0.15320
H1137       H  0.10769997  0.43847603  0.13123635     0.10810
H1138       H  0.18751541  0.52384809  0.08398983     0.10810
H1139       H  0.20946799  0.56595670  0.12232736     0.10810
H1140       H  0.13078110  0.47915747  0.16959629     0.10810
C1141       C  0.36535061  0.65897133  0.38051311    -0.15320
C1142       C  0.38391486  0.64816211  0.35624435     0.06830
C1143       C  0.41971416  0.61707647  0.35483301    -0.15320
C1144       C  0.43270370  0.59396644  0.37672481    -0.15320
C1145       C  0.41080318  0.60220069  0.40054166     0.06830
C1146       C  0.37904193  0.63655922  0.40250507    -0.15320
H1147       H  0.33649411  0.68158761  0.38202096     0.10810
H1148       H  0.43333530  0.60702029  0.33621867     0.10810
H1149       H  0.45765975  0.56800869  0.37466614     0.10810
H1150       H  0.36175282  0.64390908  0.42063383     0.10810
C1151       C  0.17079067  0.63363077  0.37703397    -0.15320
C1152       C  0.14295093  0.62640532  0.35477920     0.06830
C1153       C  0.09748334  0.64433813  0.35337823    -0.15320
C1154       C  0.07995568  0.66871875  0.37384054    -0.15320
C1155       C  0.10734123  0.67554074  0.39627433     0.06830
C1156       C  0.15308838  0.65798002  0.39765490    -0.15320
H1157       H  0.20620560  0.62046097  0.37850800     0.10810
H1158       H  0.07543873  0.63976313  0.33637540     0.10810
H1159       H  0.04448661  0.68167469  0.37223029     0.10810
H1160       H  0.17474673  0.66233372  0.41481615     0.10810
C1161       C  0.32513588  0.20019116  0.12148185    -0.15320
C1162       C  0.33805314  0.21400508  0.14638962     0.06830
C1163       C  0.36025262  0.25392974  0.14931014    -0.15320
C1164       C  0.37414271  0.27711798  0.12780389    -0.15320
C1165       C  0.36541291  0.26140615  0.10286536     0.06830
C1166       C  0.33852591  0.22387122  0.09989782    -0.15320
H1167       H  0.30772152  0.16985776  0.11858309     0.10810
H1168       H  0.37019362  0.26595863  0.16825265     0.10810
H1169       H  0.39607506  0.30504149  0.13067642     0.10810
H1170       H  0.33279042  0.21027497  0.08081619     0.10810
C1171       C  0.17392921  0.03573007  0.12832198    -0.15320
C1172       C  0.14527688  0.04466059  0.14989642     0.06830
C1173       C  0.09813514  0.03027234  0.14983486    -0.15320
C1174       C  0.08026972  0.00712713  0.12858626    -0.15320
C1175       C  0.10935657  0.99795955  0.10718059     0.06830
C1176       C  0.15627047  0.01258884  0.10730101    -0.15320
H1177       H  0.21052223  0.04619287  0.12773932     0.10810
H1178       H  0.07541938  0.03639231  0.16624730     0.10810
H1179       H  0.04370709  0.99652295  0.12887870     0.10810
H1180       H  0.17939100  0.00635089  0.09106460     0.10810
C1181       C  0.20946725  0.89535896  0.25954444    -0.15320
C1182       C  0.25119999  0.91974106  0.25937976     0.06830
C1183       C  0.29526323  0.89877706  0.26006141    -0.15320
C1184       C  0.29762153  0.85431480  0.26017221    -0.15320
C1185       C  0.25597235  0.82989534  0.25874935     0.06830
C1186       C  0.21184388  0.85084974  0.25882399    -0.15320
H1187       H  0.17506810  0.91067437  0.25881472     0.10810
H1188       H  0.32795406  0.91683334  0.25991827     0.10810
H1189       H  0.33207761  0.83906176  0.25999284     0.10810
H1190       H  0.17916457  0.83277280  0.25774894     0.10810
C1191       C  0.21971846  0.34608536  0.22921427    -0.15320
C1192       C  0.26634134  0.33057059  0.23136981     0.06830
C1193       C  0.30458087  0.35882645  0.23075222    -0.15320
C1194       C  0.29600963  0.40241022  0.23169882    -0.15320
C1195       C  0.24920300  0.41785462  0.23273577     0.06830
C1196       C  0.21116566  0.38967415  0.22963266    -0.15320
H1197       H  0.18976941  0.32452686  0.22941832     0.10810
H1198       H  0.34074920  0.34740550  0.23235863     0.10810
H1199       H  0.32586997  0.42387088  0.23370038     0.10810
H1200       H  0.17487526  0.40100019  0.23021778     0.10810
C1201       C  0.35699248  0.14646199  0.37922050    -0.15320
C1202       C  0.37511371  0.13427453  0.35504780     0.06830
C1203       C  0.40718549  0.10021764  0.35355352    -0.15320
C1204       C  0.41938830  0.07767040  0.37576676    -0.15320
C1205       C  0.40040165  0.08934965  0.39988978     0.06830
C1206       C  0.36990870  0.12453193  0.40145266    -0.15320
H1207       H  0.33203013  0.17246445  0.38083545     0.10810
H1208       H  0.42113402  0.08982945  0.33506934     0.10810
H1209       H  0.44308030  0.05074176  0.37401169     0.10810
H1210       H  0.35477299  0.13430935  0.41975719     0.10810
C1211       C  0.09944650  0.11583206  0.36294100    -0.15320
C1212       C  0.14822837  0.10704764  0.36296753     0.06830
C1213       C  0.17537671  0.11858484  0.38486396    -0.15320
C1214       C  0.15524389  0.14176519  0.40525158    -0.15320
C1215       C  0.10740899  0.15390851  0.40419816     0.06830
C1216       C  0.07923025  0.13914221  0.38336568    -0.15320
H1217       H  0.07803171  0.10856807  0.34605156     0.10810
H1218       H  0.21339412  0.11315641  0.38506211     0.10810
H1219       H  0.17768471  0.15197550  0.42119116     0.10810
H1220       H  0.04192820  0.14726968  0.38224019     0.10810
C1221       C  0.67810621  0.80067457  0.12503508    -0.15320
C1222       C  0.65066588  0.80625242  0.14746257     0.06830
C1223       C  0.60488396  0.78892680  0.14814195    -0.15320
C1224       C  0.58756519  0.76519631  0.12710737    -0.15320
C1225       C  0.61575599  0.75839155  0.10505701     0.06830
C1226       C  0.66087219  0.77692069  0.10407277    -0.15320
H1227       H  0.71356165  0.81374766  0.12392978     0.10810
H1228       H  0.58311665  0.79249538  0.16520263     0.10810
H1229       H  0.55231350  0.75170760  0.12825981     0.10810
H1230       H  0.68302419  0.77278019  0.08720459     0.10810
C1231       C  0.86598407  0.00816729  0.15105903    -0.15320
C1232       C  0.83977552  0.97019018  0.14884984     0.06830
C1233       C  0.82075564  0.95849660  0.12475064    -0.15320
C1234       C  0.83225581  0.98185758  0.10283402    -0.15320
C1235       C  0.86370727  0.01651559  0.10469100     0.06830
C1236       C  0.87817089  0.03090580  0.12912405    -0.15320
H1237       H  0.88054204  0.01847385  0.16947704     0.10810
H1238       H  0.79987368  0.92979889  0.12255237     0.10810
H1239       H  0.82177949  0.96947754  0.08405251     0.10810
H1240       H  0.90348418  0.05668778  0.13098443     0.10810
C1241       C  0.01194095  0.79236489  0.26220635    -0.15320
C1242       C  0.96593841  0.77599973  0.25941913     0.06830
C1243       C  0.95922202  0.73174680  0.25886530    -0.15320
C1244       C  0.99820422  0.70428078  0.25952921    -0.15320
C1245       C  0.04435906  0.72083027  0.26007304     0.06830
C1246       C  0.05092623  0.76495759  0.26216845    -0.15320
H1247       H  0.01795817  0.82629504  0.26261922     0.10810
H1248       H  0.92389307  0.71843933  0.25684452     0.10810
H1249       H  0.99239737  0.67037766  0.25775714     0.10810
H1250       H  0.08636287  0.77831827  0.26266139     0.10810
C1251       C  0.51797016  0.96561475  0.23913156    -0.15320
C1252       C  0.55868376  0.98288101  0.25092491     0.06830
C1253       C  0.55656800  0.02423586  0.26143991    -0.15320
C1254       C  0.51452578  0.04778082  0.26030934    -0.15320
C1255       C  0.47377252  0.03048174  0.24858222     0.06830
C1256       C  0.47593030  0.98918723  0.23797269    -0.15320
H1257       H  0.51851221  0.93382907  0.23093906     0.10810
H1258       H  0.58738427  0.03838277  0.27071462     0.10810
H1259       H  0.51396967  0.07952184  0.26855382     0.10810
H1260       H  0.44508333  0.97503833  0.22872832     0.10810
C1261       C  0.57515369  0.89635542  0.37721141    -0.15320
C1262       C  0.60136310  0.90643769  0.39968581     0.06830
C1263       C  0.64663874  0.88861438  0.40280827    -0.15320
C1264       C  0.66684416  0.86425109  0.38300060    -0.15320
C1265       C  0.64240538  0.85739308  0.35959918     0.06830
C1266       C  0.59554468  0.87202328  0.35730456    -0.15320
H1267       H  0.53979547  0.90905059  0.37445723     0.10810
H1268       H  0.66732095  0.89497315  0.42010921     0.10810
H1269       H  0.70349265  0.85430466  0.38494696     0.10810
H1270       H  0.57655123  0.86849060  0.33916299     0.10810
C1271       C  0.85799934  0.89597093  0.37959880    -0.15320
C1272       C  0.87877825  0.88677542  0.35566502     0.06830
C1273       C  0.91374992  0.85511552  0.35388214    -0.15320
C1274       C  0.92601158  0.83154165  0.37561627    -0.15320
C1275       C  0.90405467  0.84001419  0.39939117     0.06830
C1276       C  0.87084883  0.87307668  0.40131975    -0.15320
H1277       H  0.83083072  0.92014106  0.38136371     0.10810
H1278       H  0.92982692  0.84720372  0.33549472     0.10810
H1279       H  0.95194063  0.80632291  0.37375567     0.10810
H1280       H  0.85344794  0.88027859  0.41944173     0.10810
C1281       C  0.67764095  0.30535648  0.12420079    -0.15320
C1282       C  0.65672834  0.29877630  0.14834206     0.06830
C1283       C  0.62060428  0.26838362  0.15060757    -0.15320
C1284       C  0.60482718  0.24554740  0.12918461    -0.15320
C1285       C  0.62523228  0.25205739  0.10502317     0.06830
C1286       C  0.66221323  0.28170553  0.10260087    -0.15320
H1287       H  0.70573564  0.32846505  0.12210176     0.10810
H1288       H  0.60373637  0.26266710  0.16897453     0.10810
H1289       H  0.57618086  0.22298933  0.13149254     0.10810
H1290       H  0.67801772  0.28749481  0.08396693     0.10810
C1291       C  0.91602632  0.46285085  0.14868002    -0.15320
C1292       C  0.86796439  0.45137908  0.14979660     0.06830
C1293       C  0.83800287  0.46097992  0.12884603    -0.15320
C1294       C  0.85528538  0.48226763  0.10747313    -0.15320
C1295       C  0.90305860  0.49435179  0.10643418     0.06830
C1296       C  0.93345578  0.48416884  0.12711820    -0.15320
H1297       H  0.93978721  0.45601957  0.16454970     0.10810
H1298       H  0.80065269  0.45267741  0.12909044     0.10810
H1299       H  0.83116542  0.48933722  0.09178178     0.10810
H1300       H  0.97071225  0.49268013  0.12664329     0.10810
C1301       C  0.96567041  0.23123080  0.25131410    -0.15320
C1302       C  0.96671992  0.27587635  0.25109024     0.06830
C1303       C  0.01099003  0.29634090  0.25007596    -0.15320
C1304       C  0.05327571  0.27274577  0.25030877    -0.15320
C1305       C  0.05225161  0.22812274  0.25083255     0.06830
C1306       C  0.00794579  0.20759590  0.25082340    -0.15320
H1307       H  0.93207038  0.21457000  0.25210493     0.10810
H1308       H  0.01297655  0.33065182  0.25006184     0.10810
H1309       H  0.08689039  0.28944953  0.25031393     0.10810
H1310       H  0.00600021  0.17330116  0.25140062     0.10810
C1311       C  0.72112805  0.60471455  0.26297633    -0.15320
C1312       C  0.76593322  0.58493846  0.26246717     0.06830
C1313       C  0.80677957  0.61040978  0.26243584    -0.15320
C1314       C  0.80278278  0.65472313  0.26115729    -0.15320
C1315       C  0.75791497  0.67439974  0.26066862     0.06830
C1316       C  0.71716387  0.64904804  0.26248160    -0.15320
H1317       H  0.68904667  0.58575203  0.26293913     0.10810
H1318       H  0.84167258  0.59601183  0.26179904     0.10810
H1319       H  0.83476660  0.67359088  0.25981422     0.10810
H1320       H  0.68219213  0.66333631  0.26198895     0.10810
C1321       C  0.71508994  0.14483844  0.23361356    -0.15320
C1322       C  0.75338814  0.17298536  0.23550813     0.06830
C1323       C  0.80003619  0.15711931  0.23425705    -0.15320
C1324       C  0.80833529  0.11343961  0.23390722    -0.15320
C1325       C  0.77002999  0.08534974  0.23534122     0.06830
C1326       C  0.72339503  0.10115295  0.23379953    -0.15320
H1327       H  0.67892405  0.15641583  0.23453585     0.10810
H1328       H  0.83011197  0.17847896  0.23547440     0.10810
H1329       H  0.84451270  0.10188980  0.23505845     0.10810
H1330       H  0.69333208  0.07979968  0.23465450     0.10810
C1331       C  0.50190435  0.45731662  0.26009743    -0.15320
C1332       C  0.54337785  0.47417044  0.24946036     0.06830
C1333       C  0.54153709  0.51486523  0.23852533    -0.15320
C1334       C  0.49926901  0.53833656  0.23841695    -0.15320
C1335       C  0.45789455  0.52160888  0.24923835     0.06830
C1336       C  0.45965193  0.48074475  0.25995831    -0.15320
H1337       H  0.50208688  0.42604025  0.26851040     0.10810
H1338       H  0.57289600  0.52870582  0.23005073     0.10810
H1339       H  0.49910553  0.56967497  0.23011250     0.10810
H1340       H  0.42833522  0.46689276  0.26849865     0.10810
C1341       C  0.67385884  0.39104364  0.37771081    -0.15320
C1342       C  0.64627866  0.38181098  0.35564263     0.06830
C1343       C  0.59956231  0.39703184  0.35430637    -0.15320
C1344       C  0.58059051  0.42073464  0.37466359    -0.15320
C1345       C  0.60778592  0.42957551  0.39691155     0.06830
C1346       C  0.65473041  0.41472193  0.39821917    -0.15320
H1347       H  0.71019616  0.38004230  0.37910996     0.10810
H1348       H  0.57760391  0.39075274  0.33746013     0.10810
H1349       H  0.54418411  0.43151708  0.37312197     0.10810
H1350       H  0.67632457  0.42077192  0.41520870     0.10810
C1351       C  0.92513454  0.36159341  0.35784010    -0.15320
C1352       C  0.89298989  0.39569763  0.35974269     0.06830
C1353       C  0.87731443  0.40838639  0.38428821    -0.15320
C1354       C  0.89018997  0.38527756  0.40617172    -0.15320
C1355       C  0.91815964  0.34839164  0.40385191     0.06830
C1356       C  0.93730428  0.33791689  0.37963726    -0.15320
H1357       H  0.93632946  0.35011869  0.33902144     0.10810
H1358       H  0.85119307  0.43342452  0.38621746     0.10810
H1359       H  0.87515887  0.39444259  0.42460269     0.10810
H1360       H  0.95928364  0.30994033  0.37724637     0.10810
loop_ 
_geom_bond_atom_site_label_1 
_geom_bond_atom_site_label_2 
_geom_bond_distance 
_geom_bond_site_symmetry_2 
_ccdc_geom_bond_type 
N1            N2   1.332       .  A
N1            N7   1.316       .  A
N1          Mn30   2.251       .  S
N2            C9   1.364       .  A
N3            N5   1.318       .  A
N3            N4   1.322       .  A
N3          Mn19   2.220       .  S
N4           C10   1.354       .  A
N5            N6   1.325       .  A
N5          Mn30   2.226       .  S
N6           C10   1.358       .  A
N7            N8   1.310       .  A
N7          Mn19   2.150       .  S
N8            C9   1.338       .  A
C9         C1352   1.471       .  S
C10        C1302   1.489       .  S
N11          N17   1.311       .  A
N11          N12   1.325       .  A
N11         Mn41   2.214       .  S
N12          C20   1.358       .  A
N13          N14   1.321       .  A
N13          N15   1.315       .  A
N13         Mn19   2.203       .  S
N14          C21   1.352       .  A
N15          N16   1.319       .  A
N15         Mn41   2.183       .  S
N16          C21   1.352       .  A
N17          N18   1.314       .  A
N17         Mn19   2.156       .  S
N18          C20   1.345       .  A
Mn19        Cl43   2.499       .  S
C20        C1322   1.468       .  S
C21        C1342   1.475       .  S
N22          N23   1.327       .  A
N22          N28   1.317       .  A
N22         Mn30   2.234       .  S
N23          C31   1.360       .  A
N24          N26   1.322       .  A
N24          N25   1.318       .  A
N24         Mn42   2.208       .  S
N25          C32   1.349       .  A
N26          N27   1.327       .  A
N26         Mn30   2.244       .  S
N27          C32   1.360       .  A
N28          N29   1.313       .  A
N28         Mn42   2.169       .  S
N29          C31   1.345       .  A
Mn30        Cl43   2.587       .  S
C31        C1292   1.479       .  S
C32        C1312   1.483       .  S
N33          N34   1.326       .  A
N33          N39   1.313       .  A
N33         Mn41   2.220       .  S
N34          C44   1.360       .  A
N35          N36   1.326       .  A
N35          N37   1.314       .  A
N35         Mn42   2.224       .  S
N36          C45   1.359       .  A
N37          N38   1.311       .  A
N37         Mn41   2.161       .  S
N38          C45   1.346       .  A
N39          N40   1.318       .  A
N39         Mn42   2.185       .  S
N40          C44   1.349       .  A
Mn41        Cl43   2.581       .  S
Mn42        Cl43   2.504       .  S
C44        C1332   1.485       .  S
C45        C1282   1.470       .  S
N46          N47   1.325   1_565  A
N46          N52   1.312       .  A
N46         Mn75   2.214       .  S
N47          C54   1.357       .  A
N48          N50   1.313       .  A
N48          N49   1.316       .  A
N48         Mn64   2.190       .  S
N49          C55   1.349       .  A
N50          N51   1.321       .  A
N50         Mn75   2.183       .  S
N51          C55   1.353       .  A
N52          N53   1.314   1_565  A
N52         Mn64   2.158       .  S
N53          C54   1.346       .  A
C54        C1325   1.468       .  S
C55        C1272   1.468       .  S
N56          N62   1.315       .  A
N56          N57   1.330       .  A
N56         Mn86   2.245       .  S
N57          C65   1.364       .  A
N58          N59   1.318       .  A
N58          N60   1.317       .  A
N58         Mn64   2.201       .  S
N59          C66   1.351       .  A
N60          N61   1.323       .  A
N60         Mn86   2.214       .  S
N61          C66   1.357       .  A
N62          N63   1.308       .  A
N62         Mn64   2.150       .  S
N63          C65   1.338       .  A
Mn64        Cl88   2.494       .  S
C65        C1265   1.468       .  S
C66        C1252   1.480       .  S
N67          N68   1.324       .  A
N67          N73   1.313       .  A
N67         Mn75   2.205       .  S
N68          C76   1.357       .  A
N69          N71   1.315       .  A
N69          N70   1.328       .  A
N69         Mn87   2.237       .  S
N70          C77   1.362       .  A
N71          N72   1.314       .  A
N71         Mn75   2.163       .  S
N72          C77   1.345       .  A
N73          N74   1.317       .  A
N73         Mn87   2.181       .  S
N74          C76   1.348       .  A
Mn75        Cl88   2.575       .  S
C76        C1242   1.473       .  S
C77        C1232   1.480       .  S
N78          N79   1.326       .  A
N78          N84   1.316       .  A
N78         Mn86   2.232       .  S
N79          C89   1.360       .  A
N80          N81   1.320       .  A
N80          N82   1.320       .  A
N80         Mn87   2.215       .  S
N81          C90   1.351       .  A
N82          N83   1.326       .  A
N82         Mn86   2.231       .  S
N83          C90   1.359       .  A
N84          N85   1.314       .  A
N84         Mn87   2.168       .  S
N85          C89   1.345       .  A
Mn86        Cl88   2.587       .  S
Mn87        Cl88   2.503       .  S
C89        C1222   1.477       .  S
C90        C1315   1.483       .  S
N91          N92   1.322       .  A
N91          N97   1.318       .  A
N91        Mn120   2.220       .  S
N92          C99   1.354       .  A
N93          N95   1.314       .  A
N93          N94   1.333       .  A
N93        Mn109   2.259       .  S
N94         C100   1.367       .  A
N95          N96   1.308       .  A
N95        Mn120   2.141       .  S
N96         C100   1.337       .  A
N97          N98   1.325       .  A
N97        Mn109   2.225       .  S
N98          C99   1.358       .  A
C99        C1305   1.489       .  S
C100       C1212   1.473       .  S
N101        N107   1.322       .  A
N101        N102   1.320   1_545  A
N101       Mn131   2.225       .  S
N102        C110   1.352       .  A
N103        N104   1.328       .  A
N103        N105   1.318       .  A
N103       Mn109   2.236       .  S
N104        C111   1.360       .  A
N105        N106   1.313       .  A
N105       Mn131   2.170       .  S
N106        C111   1.344       .  A
N107        N108   1.326   1_545  A
N107       Mn109   2.235       .  S
N108        C110   1.358       .  A
Mn109      Cl133   2.593       .  S
C110       C1182   1.485       .  S
C111       C1172   1.480       .  S
N112        N113   1.318       .  A
N112        N118   1.314       .  A
N112       Mn120   2.202       .  S
N113        C121   1.350       .  A
N114        N116   1.311       .  A
N114        N115   1.324       .  A
N114       Mn132   2.207       .  S
N115        C122   1.355       .  A
N116        N117   1.313       .  A
N116       Mn120   2.151       .  S
N117        C122   1.346       .  A
N118        N119   1.324       .  A
N118       Mn132   2.199       .  S
N119        C121   1.356       .  A
Mn120      Cl133   2.499       .  S
C121       C1202   1.477       .  S
C122       C1192   1.463       .  S
N123        N124   1.331       .  A
N123        N129   1.315       .  A
N123       Mn131   2.253       .  S
N124        C134   1.365       .  A
N125        N126   1.323       .  A
N125        N127   1.313       .  A
N125       Mn132   2.203       .  S
N126        C135   1.357       .  A
N127        N128   1.318       .  A
N127       Mn131   2.190       .  S
N128        C135   1.351       .  A
N129        N130   1.314       .  A
N129       Mn132   2.171       .  S
N130        C134   1.346       .  A
Mn131      Cl133   2.507       .  S
Mn132      Cl133   2.574       .  S
C134       C1162   1.489       .  S
C135       C1255   1.480       .  S
N136        N137   1.317       .  A
N136        N142   1.319       .  A
N136       Mn165   2.197       .  S
N137        C144   1.348       .  A
N138        N140   1.315       .  A
N138        N139   1.332       .  A
N138       Mn154   2.253       .  S
N139        C145   1.364       .  A
N140        N141   1.309       .  A
N140       Mn165   2.144       .  S
N141        C145   1.338       .  A
N142        N143   1.327       .  A
N142       Mn154   2.239       .  S
N143        C144   1.361       .  A
C144       C1335   1.485       .  S
C145       C1142   1.470       .  S
N146        N152   1.321       .  A
N146        N147   1.321       .  A
N146       Mn176   2.224       .  S
N147        C155   1.353       .  A
N148        N149   1.329       .  A
N148        N150   1.320       .  A
N148       Mn154   2.249       .  S
N149        C156   1.360       .  A
N150        N151   1.318       .  A
N150       Mn176   2.176       .  S
N151        C156   1.344       .  A
N152        N153   1.325       .  A
N152       Mn154   2.231       .  S
N153        C155   1.358       .  A
Mn154      Cl178   2.589       .  S
C155       C1185   1.485       .  S
C156       C1122   1.490       .  S
N157        N158   1.320       .  A
N157        N163   1.314       .  A
N157       Mn165   2.194       .  S
N158        C166   1.351       .  A
N159        N161   1.310       .  A
N159        N160   1.323       .  A
N159       Mn177   2.200       .  S
N160        C167   1.355       .  A
N161        N162   1.314       .  A
N161       Mn165   2.160       .  S
N162        C167   1.346       .  A
N163        N164   1.320       .  A
N163       Mn177   2.191       .  S
N164        C166   1.354       .  A
Mn165      Cl178   2.494       .  S
C166       C1152   1.476       .  S
C167       C1195   1.465       .  S
N168        N169   1.329       .  A
N168        N174   1.316       .  A
N168       Mn176   2.250       .  S
N169        C179   1.363       .  A
N170        N171   1.324       .  A
N170        N172   1.312       .  A
N170       Mn177   2.196       .  S
N171        C180   1.356       .  A
N172        N173   1.316       .  A
N172       Mn176   2.184       .  S
N173        C180   1.348       .  A
N174        N175   1.314       .  A
N174       Mn177   2.168       .  S
N175        C179   1.345       .  A
Mn176      Cl178   2.501       .  S
Mn177      Cl178   2.583       .  S
C179       C1135   1.484       .  S
C180       C1245   1.471       .  S
N181        N182   1.322       .  A
N181        N187   1.314       .  A
N181       Mn210   2.188       .  S
N182        C189   1.353       .  A
N183        N185   1.311       .  A
N183        N184   1.310       .  A
N183       Mn199   2.141       .  S
N184        C190   1.343       .  A
N185        N186   1.323   1_554  A
N185       Mn210   2.204       .  S
N186        C190   1.358   1_556  A
N187        N188   1.315       .  A
N187       Mn199   2.188       .  S
N188        C189   1.349       .  A
C189       C1285   1.467       .  S
C190       C1102   1.461       .  S
N191        N197   1.317       .  A
N191        N192   1.320   1_554  A
N191       Mn221   2.199       .  S
N192        C200   1.355   1_556  A
N193        N194   1.311       .  A
N193        N195   1.316       .  A
N193       Mn199   2.152       .  S
N194        C201   1.338       .  A
N195        N196   1.331       .  A
N195       Mn221   2.242       .  S
N196        C201   1.361       .  A
N197        N198   1.320       .  A
N197       Mn199   2.214       .  S
N198        C200   1.353       .  A
Mn199      Cl223   2.489       .  S
C200       C1085   1.478       .  S
C201       C1165   1.471       .  S
N202        N203   1.316       .  A
N202        N208   1.314       .  A
N202       Mn210   2.185   1_556  S
N203        C211   1.351       .  A
N204        N206   1.312       .  A
N204        N205   1.321       .  A
N204       Mn222   2.196       .  S
N205        C212   1.352       .  A
N206        N207   1.322   1_556  A
N206       Mn210   2.198   1_556  S
N207        C212   1.355   1_554  A
N208        N209   1.321       .  A
N208       Mn222   2.198       .  S
N209        C211   1.354       .  A
Mn210      Cl223   2.573       .  S
C211       C1062   1.469       .  S
C212       C1112   1.478   1_556  S
N213        N214   1.323   1_556  A
N213        N219   1.318       .  A
N213       Mn221   2.217   1_556  S
N214        C224   1.358   1_554  A
N215        N216   1.314       .  A
N215        N217   1.317       .  A
N215       Mn222   2.172       .  S
N216        C225   1.345       .  A
N217        N218   1.326       .  A
N217       Mn221   2.228   1_556  S
N218        C225   1.358       .  A
N219        N220   1.310       .  A
N219       Mn222   2.166       .  S
N220        C224   1.342       .  A
Mn221      Cl223   2.581       .  S
Mn222      Cl223   2.502   1_556  S
C224       C1095   1.461   1_556  S
C225       C1072   1.478       .  S
N226        N227   1.324       .  A
N226        N232   1.316       .  A
N226       Mn255   2.212       .  S
N227        C234   1.358       .  A
N228        N230   1.310       .  A
N228        N229   1.310       .  A
N228       Mn244   2.128       .  S
N229        C235   1.342       .  A
N230        N231   1.322       .  A
N230       Mn255   2.206       .  S
N231        C235   1.357       .  A
N232        N233   1.317       .  A
N232       Mn244   2.186       .  S
N233        C234   1.347       .  A
C234       C1225   1.477       .  S
C235       C1092   1.459       .  S
N236        N242   1.319       .  A
N236        N237   1.322   1_554  A
N236       Mn266   2.214       .  S
N237        C245   1.356   1_556  A
N238        N239   1.307       .  A
N238        N240   1.311       .  A
N238       Mn244   2.125       .  S
N239        C246   1.334       .  A
N240        N241   1.335       .  A
N240       Mn266   2.261       .  S
N241        C246   1.369       .  A
N242        N243   1.322       .  A
N242       Mn244   2.229       .  S
N243        C245   1.355       .  A
Mn244      Cl268   2.489       .  S
C245       C1042   1.484   1_554  S
C246       C1125   1.476       .  S
N247        N248   1.319       .  A
N247        N253   1.317       .  A
N247       Mn255   2.199   1_556  S
N248        C256   1.351       .  A
N249        N251   1.310       .  A
N249        N250   1.319       .  A
N249       Mn267   2.182       .  S
N250        C257   1.349       .  A
N251        N252   1.325   1_556  A
N251       Mn255   2.211   1_556  S
N252        C257   1.360   1_554  A
N253        N254   1.325       .  A
N253       Mn267   2.230       .  S
N254        C256   1.359       .  A
Mn255      Cl268   2.576       .  S
C256       C1022   1.484       .  S
C257       C1052   1.485       .  S
N258        N259   1.321   1_556  A
N258        N264   1.321       .  A
N258       Mn266   2.212   1_556  S
N259        C269   1.357   1_554  A
N260        N261   1.318       .  A
N260        N262   1.321       .  A
N260       Mn267   2.176       .  S
N261        C270   1.344       .  A
N262        N263   1.327       .  A
N262       Mn266   2.238   1_556  S
N263        C270   1.357       .  A
N264        N265   1.312       .  A
N264       Mn267   2.185       .  S
N265        C269   1.344       .  A
Mn266      Cl268   2.590       .  S
Mn267      Cl268   2.499   1_556  S
C269       C1105   1.460   1_556  S
C270       C1032   1.487       .  S
N271        N272   1.321       .  A
N271        N277   1.314       .  A
N271       Mn300   2.203       .  S
N272        C279   1.356       .  A
N273        N275   1.311       .  A
N273        N274   1.314   1_455  A
N273       Mn289   2.160   1_455  S
N274        C280   1.346   1_654  A
N275        N276   1.325   1_554  A
N275       Mn300   2.209       .  S
N276        C280   1.358       .  A
N277        N278   1.320       .  A
N277       Mn289   2.188   1_455  S
N278        C279   1.349       .  A
C279       C1175   1.478       .  S
C280       C1005   1.470       .  S
N281        N287   1.319       .  A
N281        N282   1.328   1_554  A
N281       Mn311   2.240   1_565  S
N282        C290   1.363   1_556  A
N283        N284   1.309       .  A
N283        N285   1.314   1_565  A
N283       Mn289   2.148       .  S
N284        C291   1.339   1_565  A
N285        N286   1.329       .  A
N285       Mn311   2.227       .  S
N286        C291   1.359       .  A
N287        N288   1.315       .  A
N287       Mn289   2.193       .  S
N288        C290   1.347       .  A
Mn289      Cl313   2.497   1_655  S
C290       C1055   1.486   1_554  S
C291       C1235   1.462       .  S
N292        N293   1.314       .  A
N292        N298   1.317       .  A
N292       Mn300   2.186   1_556  S
N293        C301   1.348       .  A
N294        N296   1.312   1_556  A
N294        N295   1.317       .  A
N294       Mn312   2.185       .  S
N295        C302   1.349   1_556  A
N296        N297   1.324       .  A
N296       Mn300   2.200   1_545  S
N297        C302   1.357       .  A
N298        N299   1.327       .  A
N298       Mn312   2.236   1_565  S
N299        C301   1.361       .  A
Mn300      Cl313   2.574       .  S
C301        C995   1.481       .  S
C302       C1082   1.478       .  S
N303        N304   1.324       .  A
N303        N309   1.320   1_654  A
N303       Mn311   2.226       .  S
N304        C314   1.357       .  A
N305        N306   1.319       .  A
N305        N307   1.320       .  A
N305       Mn312   2.183   1_655  S
N306        C315   1.346       .  A
N307        N308   1.325       .  A
N307       Mn311   2.224   1_556  S
N308        C315   1.355       .  A
N309        N310   1.317       .  A
N309       Mn312   2.207       .  S
N310        C314   1.350   1_456  A
Mn311      Cl313   2.584   1_645  S
Mn312      Cl313   2.509   1_546  S
C314       C1015   1.474       .  S
C315        C982   1.483       .  S
N316        N317   1.321       .  A
N316        N322   1.315       .  A
N316       Mn345   2.196       .  S
N317        C324   1.354       .  A
N318        N320   1.311   1_455  A
N318        N319   1.314       .  A
N318       Mn334   2.158       .  S
N319        C325   1.346   1_454  A
N320        N321   1.325   1_554  A
N320       Mn345   2.214       .  S
N321        C325   1.358       .  A
N322        N323   1.320       .  A
N322       Mn334   2.195   1_655  S
N323        C324   1.350       .  A
C324       C1295   1.477       .  S
C325       C1002   1.470       .  S
N326        N332   1.319       .  A
N326        N327   1.326   1_554  A
N326       Mn356   2.229       .  S
N327        C335   1.359       .  A
N328        N329   1.309       .  A
N328        N330   1.314       .  A
N328       Mn334   2.146       .  S
N329        C336   1.338       .  A
N330        N331   1.330       .  A
N330       Mn356   2.233       .  S
N331        C336   1.361       .  A
N332        N333   1.319       .  A
N332       Mn334   2.210       .  S
N333        C335   1.351   1_554  A
Mn334      Cl358   2.492       .  S
C335       C1045   1.483       .  S
C336       C1132   1.465       .  S
N337        N338   1.313       .  A
N337        N343   1.317       .  A
N337       Mn345   2.175   1_556  S
N338        C346   1.347       .  A
N339        N341   1.312   1_556  A
N339        N340   1.316       .  A
N339       Mn357   2.181       .  S
N340        C347   1.347   1_556  A
N341        N342   1.326       .  A
N341       Mn345   2.212       .  S
N342        C347   1.359       .  A
N343        N344   1.327       .  A
N343       Mn357   2.240       .  S
N344        C346   1.361       .  A
Mn345      Cl358   2.581   1_655  S
C346        C962   1.476       .  S
C347       C1115   1.476       .  S
N348        N349   1.324       .  A
N348        N354   1.320   1_454  A
N348       Mn356   2.223       .  S
N349        C359   1.358       .  A
N350        N351   1.318       .  A
N350        N352   1.320       .  A
N350       Mn357   2.179   1_455  S
N351        C360   1.345       .  A
N352        N353   1.325       .  A
N352       Mn356   2.228   1_556  S
N353        C360   1.356       .  A
N354        N355   1.317       .  A
N354       Mn357   2.204       .  S
N355        C359   1.349   1_656  A
Mn356      Cl358   2.589       .  S
Mn357      Cl358   2.502   1_656  S
C359       C1012   1.474       .  S
C360        C972   1.481       .  S
N361        N362   1.331       .  A
N361        N367   1.314       .  A
N361       Mn390   2.246       .  S
N362        C369   1.365       .  A
N363        N365   1.317       .  A
N363        N364   1.317       .  A
N363       Mn379   2.200       .  S
N364        C370   1.350       .  A
N365        N366   1.325       .  A
N365       Mn390   2.221       .  S
N366        C370   1.359       .  A
N367        N368   1.308       .  A
N367       Mn379   2.148       .  S
N368        C369   1.339       .  A
C369        C985   1.469       .  S
C370        C925   1.483       .  S
N371        N377   1.311       .  A
N371        N372   1.323   1_545  A
N371       Mn401   2.208       .  S
N372        C380   1.356       .  A
N373        N374   1.315       .  A
N373        N375   1.313       .  A
N373       Mn379   2.184       .  S
N374        C381   1.348       .  A
N375        N376   1.322       .  A
N375       Mn401   2.187       .  S
N376        C381   1.354       .  A
N377        N378   1.313   1_545  A
N377       Mn379   2.152       .  S
N378        C380   1.346       .  A
Mn379      Cl403   2.497       .  S
C380        C932   1.466       .  S
C381       C1065   1.466       .  S
N382        N383   1.327       .  A
N382        N388   1.318       .  A
N382       Mn390   2.243       .  S
N383        C391   1.361       .  A
N384        N386   1.320       .  A
N384        N385   1.316       .  A
N384       Mn402   2.205       .  S
N385        C392   1.349       .  A
N386        N387   1.325       .  A
N386       Mn390   2.223       .  S
N387        C392   1.357       .  A
N388        N389   1.313       .  A
N388       Mn402   2.164       .  S
N389        C391   1.343       .  A
Mn390      Cl403   2.581       .  S
C391        C912   1.479       .  S
C392        C942   1.473       .  S
N393        N394   1.324       .  A
N393        N399   1.312       .  A
N393       Mn401   2.204       .  S
N394        C404   1.357       .  A
N395        N396   1.326       .  A
N395        N397   1.314       .  A
N395       Mn402   2.230       .  S
N396        C405   1.361       .  A
N397        N398   1.316       .  A
N397       Mn401   2.174       .  S
N398        C405   1.348       .  A
N399        N400   1.317       .  A
N399       Mn402   2.183       .  S
N400        C404   1.349       .  A
Mn401      Cl403   2.578       .  S
Mn402      Cl403   2.500       .  S
C404        C952   1.474       .  S
C405        C902   1.482       .  S
N406        N407   1.330       .  A
N406        N412   1.315       .  A
N406       Mn435   2.242       .  S
N407        C414   1.362       .  A
N408        N410   1.320       .  A
N408        N409   1.322       .  A
N408       Mn424   2.229       .  S
N409        C415   1.354       .  A
N410        N411   1.327       .  A
N410       Mn435   2.238       .  S
N411        C415   1.359       .  A
N412        N413   1.311       .  A
N412       Mn424   2.152       .  S
N413        C414   1.339       .  A
C414       C1025   1.469       .  S
C415        C892   1.493       .  S
N416        N422   1.311       .  A
N416        N417   1.323       .  A
N416       Mn446   2.201       .  S
N417        C425   1.355       .  A
N418        N419   1.320       .  A
N418        N420   1.315       .  A
N418       Mn424   2.216       .  S
N419        C426   1.354       .  A
N420        N421   1.320       .  A
N420       Mn446   2.178       .  S
N421        C426   1.351       .  A
N422        N423   1.314       .  A
N422       Mn424   2.159       .  S
N423        C425   1.346       .  A
Mn424      Cl448   2.503       .  S
C425        C935   1.460       .  S
C426        C965   1.475       .  S
N427        N428   1.328       .  A
N427        N433   1.321       .  A
N427       Mn435   2.246       .  S
N428        C436   1.359       .  A
N429        N431   1.321       .  A
N429        N430   1.316       .  A
N429       Mn447   2.206       .  S
N430        C437   1.348       .  A
N431        N432   1.324       .  A
N431       Mn435   2.225       .  S
N432        C437   1.356       .  A
N433        N434   1.316       .  A
N433       Mn447   2.169       .  S
N434        C436   1.342       .  A
Mn435      Cl448   2.579       .  S
C436        C862   1.484       .  S
C437        C945   1.466       .  S
N438        N439   1.324       .  A
N438        N444   1.311       .  A
N438       Mn446   2.204       .  S
N439        C449   1.358       .  A
N440        N441   1.328       .  A
N440        N442   1.315       .  A
N440       Mn447   2.232       .  S
N441        C450   1.362       .  A
N442        N443   1.311       .  A
N442       Mn446   2.164       .  S
N443        C450   1.345       .  A
N444        N445   1.318       .  A
N444       Mn447   2.183       .  S
N445        C449   1.350       .  A
Mn446      Cl448   2.579       .  S
Mn447      Cl448   2.507       .  S
C449        C882   1.482       .  S
C450        C872   1.476       .  S
N451        N452   1.331       .  A
N451        N457   1.313       .  A
N451       Mn480   2.246       .  S
N452        C459   1.365       .  A
N453        N455   1.318       .  A
N453        N454   1.317       .  A
N453       Mn469   2.194       .  S
N454        C460   1.348       .  A
N455        N456   1.326       .  A
N455       Mn480   2.233       .  S
N456        C460   1.360       .  A
N457        N458   1.307       .  A
N457       Mn469   2.136       .  S
N458        C459   1.337       .  A
C459        C975   1.466       .  S
C460        C885   1.483       .  S
N461        N467   1.311       .  A
N461        N462   1.325       .  A
N461       Mn491   2.216       .  S
N462        C470   1.358       .  A
N463        N464   1.319       .  A
N463        N465   1.313       .  A
N463       Mn469   2.188       .  S
N464        C471   1.348       .  A
N465        N466   1.321       .  A
N465       Mn491   2.193       .  S
N466        C471   1.355       .  A
N467        N468   1.313       .  A
N467       Mn469   2.153       .  S
N468        C470   1.345       .  A
Mn469      Cl493   2.498       .  S
C470        C842   1.467       .  S
C471       C1075   1.477       .  S
N472        N473   1.327       .  A
N472        N478   1.321       .  A
N472       Mn480   2.239       .  S
N473        C481   1.358       .  A
N474        N476   1.320       .  A
N474        N475   1.318       .  A
N474       Mn492   2.212       .  S
N475        C482   1.350       .  A
N476        N477   1.324       .  A
N476       Mn480   2.219       .  S
N477        C482   1.357       .  A
N478        N479   1.316       .  A
N478       Mn492   2.176       .  S
N479        C481   1.344       .  A
Mn480      Cl493   2.583       .  S
C481        C832   1.483       .  S
C482        C855   1.476       .  S
N483        N484   1.325       .  A
N483        N489   1.312       .  A
N483       Mn491   2.204       .  S
N484        C494   1.358       .  A
N485        N486   1.329       .  A
N485        N487   1.316       .  A
N485       Mn492   2.240       .  S
N486        C495   1.362       .  A
N487        N488   1.312       .  A
N487       Mn491   2.173       .  S
N488        C495   1.347       .  A
N489        N490   1.315       .  A
N489       Mn492   2.178       .  S
N490        C494   1.347       .  A
Mn491      Cl493   2.582       .  S
Mn492      Cl493   2.497       .  S
C494        C955   1.472       .  S
C495        C822   1.480       .  S
N496        N497   1.332       .  A
N496        N502   1.313       .  A
N496       Mn525   2.257       .  S
N497        C504   1.367       .  A
N498        N500   1.319       .  A
N498        N499   1.324       .  A
N498       Mn514   2.235       .  S
N499        C505   1.356       .  A
N500        N501   1.324       .  A
N500       Mn525   2.222       .  S
N501        C505   1.357       .  A
N502        N503   1.307       .  A
N502       Mn514   2.138       .  S
N503        C504   1.336       .  A
C504       C1035   1.471       .  S
C505        C895   1.493       .  S
N506        N512   1.311       .  A
N506        N507   1.325       .  A
N506       Mn536   2.217       .  S
N507        C515   1.358       .  A
N508        N509   1.319       .  A
N508        N510   1.315       .  A
N508       Mn514   2.208       .  S
N509        C516   1.351       .  A
N510        N511   1.324       .  A
N510       Mn536   2.193       .  S
N511        C516   1.354       .  A
N512        N513   1.313       .  A
N512       Mn514   2.147       .  S
N513        C515   1.345       .  A
Mn514      Cl538   2.498       .  S
C515        C845   1.468       .  S
C516        C992   1.477       .  S
N517        N518   1.328       .  A
N517        N523   1.318       .  A
N517       Mn525   2.242       .  S
N518        C526   1.361       .  A
N519        N521   1.321       .  A
N519        N520   1.320       .  A
N519       Mn537   2.220       .  S
N520        C527   1.352   1_565  A
N521        N522   1.323       .  A
N521       Mn525   2.223       .  S
N522        C527   1.356   1_565  A
N523        N524   1.314       .  A
N523       Mn537   2.170       .  S
N524        C526   1.344       .  A
Mn525      Cl538   2.591       .  S
C526        C802   1.482       .  S
C527        C852   1.478       .  S
N528        N529   1.324       .  A
N528        N534   1.312       .  A
N528       Mn536   2.209       .  S
N529        C539   1.358       .  A
N530        N531   1.328       .  A
N530        N532   1.315       .  A
N530       Mn537   2.243       .  S
N531        C540   1.362       .  A
N532        N533   1.315       .  A
N532       Mn536   2.173       .  S
N533        C540   1.347       .  A
N534        N535   1.319       .  A
N534       Mn537   2.189       .  S
N535        C539   1.351       .  A
Mn536      Cl538   2.573       .  S
Mn537      Cl538   2.508       .  S
C539        C922   1.483       .  S
C540        C812   1.484       .  S
N541        N542   1.321       .  A
N541        N547   1.317       .  A
N541       Mn570   2.218       .  S
N542        C549   1.355       .  A
N543        N545   1.311       .  A
N543        N544   1.321       .  A
N543       Mn559   2.199       .  S
N544        C550   1.353       .  A
N545        N546   1.324       .  A
N545       Mn570   2.200   1_565  S
N546        C550   1.357       .  A
N547        N548   1.321       .  A
N547       Mn559   2.206   1_545  S
N548        C549   1.354       .  A
C549       C1205   1.481       .  S
C550        C762   1.486       .  S
N551        N557   1.319       .  A
N551        N552   1.321       .  A
N551       Mn581   2.216       .  S
N552        C560   1.357       .  A
N553        N554   1.320       .  A
N553        N555   1.320       .  A
N553       Mn559   2.188       .  S
N554        C561   1.347       .  A
N555        N556   1.323       .  A
N555       Mn581   2.217       .  S
N556        C561   1.353       .  A
N557        N558   1.310       .  A
N557       Mn559   2.168       .  S
N558        C560   1.343       .  A
Mn559      Cl583   2.513   1_565  S
C560        C772   1.459       .  S
C561       C1262   1.483       .  S
N562        N563   1.325       .  A
N562        N568   1.316       .  A
N562       Mn570   2.223       .  S
N563        C571   1.359       .  A
N564        N566   1.311       .  A
N564        N565   1.313       .  A
N564       Mn582   2.153       .  S
N565        C572   1.346       .  A
N566        N567   1.323       .  A
N566       Mn570   2.204       .  S
N567        C572   1.357       .  A
N568        N569   1.318       .  A
N568       Mn582   2.184       .  S
N569        C571   1.347       .  A
Mn570      Cl583   2.570       .  S
C571        C805   1.481   1_545  S
C572        C782   1.468       .  S
N573        N574   1.324       .  A
N573        N579   1.319       .  A
N573       Mn581   2.222   1_545  S
N574        C584   1.358       .  A
N575        N576   1.310       .  A
N575        N577   1.313       .  A
N575       Mn582   2.151   1_565  S
N576        C585   1.340       .  A
N577        N578   1.329       .  A
N577       Mn581   2.228       .  S
N578        C585   1.360       .  A
N579        N580   1.319       .  A
N579       Mn582   2.211       .  S
N580        C584   1.352       .  A
Mn581      Cl583   2.576   1_565  S
Mn582      Cl583   2.504       .  S
C584        C792   1.484       .  S
C585        C905   1.466       .  S
N586        N587   1.319       .  A
N586        N592   1.316       .  A
N586       Mn615   2.197       .  S
N587        C594   1.351       .  A
N588        N590   1.312       .  A
N588        N589   1.322       .  A
N588       Mn604   2.203       .  S
N589        C595   1.354       .  A
N590        N591   1.323       .  A
N590       Mn615   2.202       .  S
N591        C595   1.356       .  A
N592        N593   1.325       .  A
N592       Mn604   2.232       .  S
N593        C594   1.360       .  A
C594       C1145   1.486       .  S
C595        C742   1.486       .  S
N596        N602   1.320       .  A
N596        N597   1.320       .  A
N596       Mn626   2.211       .  S
N597        C605   1.355       .  A
N598        N599   1.316       .  A
N598        N600   1.318       .  A
N598       Mn604   2.183       .  S
N599        C606   1.347       .  A
N600        N601   1.324       .  A
N600       Mn626   2.218       .  S
N601        C606   1.355       .  A
N602        N603   1.316       .  A
N602       Mn604   2.196       .  S
N603        C605   1.348       .  A
Mn604      Cl628   2.513       .  S
C605        C785   1.468       .  S
C606       C1345   1.477       .  S
N607        N608   1.326       .  A
N607        N613   1.315       .  A
N607       Mn615   2.205       .  S
N608        C616   1.356       .  A
N609        N611   1.311       .  A
N609        N610   1.310       .  A
N609       Mn627   2.131       .  S
N610        C617   1.342       .  A
N611        N612   1.321       .  A
N611       Mn615   2.206       .  S
N612        C617   1.357       .  A
N613        N614   1.315       .  A
N613       Mn627   2.193       .  S
N614        C616   1.348       .  A
Mn615      Cl628   2.569       .  S
C616        C825   1.476       .  S
C617        C775   1.458       .  S
N618        N619   1.323       .  A
N618        N624   1.317       .  A
N618       Mn626   2.208       .  S
N619        C629   1.356       .  A
N620        N621   1.307       .  A
N620        N622   1.311       .  A
N620       Mn627   2.132       .  S
N621        C630   1.336       .  A
N622        N623   1.332       .  A
N622       Mn626   2.248       .  S
N623        C630   1.367       .  A
N624        N625   1.323       .  A
N624       Mn627   2.231       .  S
N625        C629   1.357       .  A
Mn626      Cl628   2.581       .  S
Mn627      Cl628   2.498       .  S
C629        C752   1.490       .  S
C630        C865   1.469       .  S
N631        N632   1.319       .  A
N631        N637   1.318       .  A
N631       Mn660   2.203       .  S
N632        C639   1.352       .  A
N633        N635   1.312       .  A
N633        N634   1.320       .  A
N633       Mn649   2.197       .  S
N634        C640   1.352       .  A
N635        N636   1.324       .  A
N635       Mn660   2.202       .  S
N636        C640   1.357       .  A
N637        N638   1.325       .  A
N637       Mn649   2.233       .  S
N638        C639   1.360       .  A
C639       C1355   1.487       .  S
C640        C795   1.485       .  S
N641        N647   1.321   1_455  A
N641        N642   1.322       .  A
N641       Mn671   2.216       .  S
N642        C650   1.355       .  A
N643        N644   1.320       .  A
N643        N645   1.321       .  A
N643       Mn649   2.184   1_455  S
N644        C651   1.347       .  A
N645        N646   1.325       .  A
N645       Mn671   2.230       .  S
N646        C651   1.355       .  A
N647        N648   1.314       .  A
N647       Mn649   2.190       .  S
N648        C650   1.345   1_655  A
Mn649      Cl673   2.515       .  S
C650        C732   1.455   1_455  S
C651       C1215   1.486       .  S
N652        N653   1.325       .  A
N652        N658   1.315       .  A
N652       Mn660   2.219       .  S
N653        C661   1.360       .  A
N654        N656   1.310       .  A
N654        N655   1.312   1_655  A
N654       Mn672   2.138   1_655  S
N655        C662   1.345   1_455  A
N656        N657   1.321       .  A
N656       Mn660   2.203       .  S
N657        C662   1.356       .  A
N658        N659   1.316       .  A
N658       Mn672   2.178   1_655  S
N659        C661   1.345       .  A
Mn660      Cl673   2.567       .  S
C661        C915   1.478       .  S
C662        C722   1.462       .  S
N663        N664   1.324       .  A
N663        N669   1.318       .  A
N663       Mn671   2.224       .  S
N664        C674   1.358       .  A
N665        N666   1.307       .  A
N665        N667   1.310       .  A
N665       Mn672   2.129       .  S
N666        C675   1.336       .  A
N667        N668   1.332       .  A
N667       Mn671   2.244       .  S
N668        C675   1.366       .  A
N669        N670   1.319       .  A
N669       Mn672   2.213       .  S
N670        C674   1.353       .  A
Mn671      Cl673   2.577   1_455  S
Mn672      Cl673   2.504   1_455  S
C674        C745   1.486       .  S
C675        C835   1.468       .  S
N676        N677   1.316       .  A
N676        N682   1.315       .  A
N676       Mn705   2.186       .  S
N677        C684   1.351       .  A
N678        N680   1.312       .  A
N678        N679   1.323       .  A
N678       Mn694   2.210       .  S
N679        C685   1.356       .  A
N680        N681   1.322       .  A
N680       Mn705   2.199       .  S
N681        C685   1.355       .  A
N682        N683   1.321       .  A
N682       Mn694   2.203       .  S
N683        C684   1.355       .  A
C684       C1275   1.470       .  S
C685        C755   1.489       .  S
N686        N692   1.319   1_455  A
N686        N687   1.321       .  A
N686       Mn716   2.216       .  S
N687        C695   1.357       .  A
N688        N689   1.316       .  A
N688        N690   1.317       .  A
N688       Mn694   2.180   1_455  S
N689        C696   1.347       .  A
N690        N691   1.325       .  A
N690       Mn716   2.218       .  S
N691        C696   1.356       .  A
N692        N693   1.312       .  A
N692       Mn694   2.175       .  S
N693        C695   1.345   1_655  A
Mn694      Cl718   2.517       .  S
C695        C725   1.463   1_455  S
C696       C1155   1.478       .  S
N697        N698   1.322       .  A
N697        N703   1.316       .  A
N697       Mn705   2.192       .  S
N698        C706   1.352       .  A
N699        N701   1.312       .  A
N699        N700   1.313   1_655  A
N699       Mn717   2.151   1_655  S
N700        C707   1.343   1_455  A
N701        N702   1.322       .  A
N701       Mn705   2.205       .  S
N702        C707   1.355       .  A
N703        N704   1.317       .  A
N703       Mn717   2.197   1_655  S
N704        C706   1.350       .  A
Mn705      Cl718   2.561       .  S
C706        C875   1.467       .  S
C707        C735   1.454       .  S
N708        N709   1.322       .  A
N708        N714   1.318       .  A
N708       Mn716   2.211       .  S
N709        C719   1.356       .  A
N710        N711   1.311       .  A
N710        N712   1.315       .  A
N710       Mn717   2.155       .  S
N711        C720   1.340       .  A
N712        N713   1.329       .  A
N712       Mn716   2.231       .  S
N713        C720   1.360       .  A
N714        N715   1.322       .  A
N714       Mn717   2.227       .  S
N715        C719   1.355       .  A
Mn716      Cl718   2.574   1_455  S
Mn717      Cl718   2.509   1_455  S
C719        C765   1.486       .  S
C720        C815   1.467       .  S
C721        C722   1.406   1_455  A
C721        C726   1.391       .  A
C721        H727   1.084       .  S
C722        C723   1.398       .  A
C723        C724   1.391       .  A
C723        H728   1.082       .  S
C724        C725   1.406       .  A
C724        H729   1.084       .  S
C725        C726   1.398   1_655  A
C726        H730   1.082       .  S
C731        C732   1.397       .  A
C731        C736   1.394   1_545  A
C731        H737   1.084       .  S
C732        C733   1.403       .  A
C733        C734   1.394   1_545  A
C733        H738   1.083       .  S
C734        C735   1.397       .  A
C734        H739   1.084       .  S
C735        C736   1.403       .  A
C736        H740   1.083       .  S
C741        C742   1.408       .  A
C741        C746   1.403       .  A
C741        H747   1.083       .  S
C742        C743   1.404       .  A
C743        C744   1.400       .  A
C743        H748   1.082       .  S
C744        C745   1.407       .  A
C744        H749   1.083       .  S
C745        C746   1.405       .  A
C746        H750   1.082       .  S
C751        C752   1.406       .  A
C751        C756   1.402       .  A
C751        H757   1.083       .  S
C752        C753   1.407       .  A
C753        C754   1.404       .  A
C753        H758   1.082       .  S
C754        C755   1.406       .  A
C754        H759   1.084       .  S
C755        C756   1.406       .  A
C756        H760   1.082       .  S
C761        C762   1.407       .  A
C761        C766   1.401       .  A
C761        H767   1.084       .  S
C762        C763   1.405       .  A
C763        C764   1.402       .  A
C763        H768   1.082       .  S
C764        C765   1.407       .  A
C764        H769   1.083       .  S
C765        C766   1.405       .  A
C766        H770   1.082       .  S
C771        C772   1.407       .  A
C771        C776   1.390       .  A
C771        H777   1.083       .  S
C772        C773   1.397       .  A
C773        C774   1.390       .  A
C773        H778   1.083       .  S
C774        C775   1.407       .  A
C774        H779   1.083       .  S
C775        C776   1.396       .  A
C776        H780   1.083       .  S
C781        C782   1.406       .  A
C781        C786   1.392       .  A
C781        H787   1.083       .  S
C782        C783   1.400       .  A
C783        C784   1.396       .  A
C783        H788   1.083       .  S
C784        C785   1.406       .  A
C784        H789   1.082       .  S
C785        C786   1.399       .  A
C786        H790   1.083       .  S
C791        C792   1.408       .  A
C791        C796   1.401       .  A
C791        H797   1.083       .  S
C792        C793   1.404       .  A
C793        C794   1.401       .  A
C793        H798   1.082       .  S
C794        C795   1.408       .  A
C794        H799   1.083       .  S
C795        C796   1.404       .  A
C796        H800   1.082       .  S
C801        C802   1.402       .  A
C801        C806   1.402       .  A
C801        H807   1.083       .  S
C802        C803   1.410       .  A
C803        C804   1.397       .  A
C803        H808   1.083       .  S
C804        C805   1.400       .  A
C804        H809   1.083       .  S
C805        C806   1.410       .  A
C806        H810   1.082       .  S
C811        C812   1.403       .  A
C811        C816   1.403       .  A
C811        H817   1.083       .  S
C812        C813   1.409       .  A
C813        C814   1.398       .  A
C813        H818   1.083       .  S
C814        C815   1.399       .  A
C814        H819   1.084       .  S
C815        C816   1.408       .  A
C816        H820   1.084       .  S
C821        C822   1.406       .  A
C821        C826   1.409       .  A
C821        H827   1.082       .  S
C822        C823   1.405       .  A
C823        C824   1.389       .  A
C823        H828   1.083       .  S
C824        C825   1.400       .  A
C824        H829   1.084       .  S
C825        C826   1.408       .  A
C826        H830   1.083       .  S
C831        C832   1.410       .  A
C831        C836   1.400       .  A
C831        H837   1.083       .  S
C832        C833   1.401       .  A
C833        C834   1.400       .  A
C833        H838   1.083       .  S
C834        C835   1.409       .  A
C834        H839   1.083       .  S
C835        C836   1.401       .  A
C836        H840   1.084       .  S
C841        C842   1.398       .  A
C841        C846   1.396       .  A
C841        H847   1.083       .  S
C842        C843   1.407       .  A
C843        C844   1.396       .  A
C843        H848   1.083       .  S
C844        C845   1.399       .  A
C844        H849   1.083       .  S
C845        C846   1.407       .  A
C846        H850   1.084       .  S
C851        C852   1.403       .  A
C851        C856   1.399       .  A
C851        H857   1.083       .  S
C852        C853   1.406       .  A
C853        C854   1.401       .  A
C853        H858   1.083       .  S
C854        C855   1.403       .  A
C854        H859   1.083       .  S
C855        C856   1.405       .  A
C856        H860   1.083       .  S
C861        C862   1.410       .  A
C861        C866   1.401       .  A
C861        H867   1.083       .  S
C862        C863   1.401       .  A
C863        C864   1.400       .  A
C863        H868   1.083       .  S
C864        C865   1.409       .  A
C864        H869   1.083       .  S
C865        C866   1.401       .  A
C866        H870   1.084       .  S
C871        C872   1.407       .  A
C871        C876   1.388       .  A
C871        H877   1.083       .  S
C872        C873   1.405       .  A
C873        C874   1.405       .  A
C873        H878   1.082       .  S
C874        C875   1.407       .  A
C874        H879   1.084       .  S
C875        C876   1.396       .  A
C876        H880   1.083       .  S
C881        C882   1.402   1_455  A
C881        C886   1.399       .  A
C881        H887   1.083       .  S
C882        C883   1.408       .  A
C883        C884   1.401   1_655  A
C883        H888   1.083       .  S
C884        C885   1.402       .  A
C884        H889   1.082       .  S
C885        C886   1.409       .  A
C886        H890   1.083       .  S
C891        C892   1.407       .  A
C891        C896   1.405       .  A
C891        H897   1.083       .  S
C892        C893   1.407       .  A
C893        C894   1.408       .  A
C893        H898   1.082       .  S
C894        C895   1.408       .  A
C894        H899   1.084       .  S
C895        C896   1.406       .  A
C896        H900   1.083       .  S
C901        C902   1.408   1_565  A
C901        C906   1.398       .  A
C901        H907   1.083       .  S
C902        C903   1.402       .  A
C903        C904   1.402       .  A
C903        H908   1.083       .  S
C904        C905   1.408   1_545  A
C904        H909   1.084       .  S
C905        C906   1.399       .  A
C906        H910   1.083       .  S
C911        C912   1.410       .  A
C911        C916   1.396       .  A
C911        H917   1.082       .  S
C912        C913   1.401       .  A
C913        C914   1.400       .  A
C913        H918   1.083       .  S
C914        C915   1.410       .  A
C914        H919   1.083       .  S
C915        C916   1.399       .  A
C916        H920   1.083       .  S
C921        C922   1.402   1_655  A
C921        C926   1.399       .  A
C921        H927   1.082       .  S
C922        C923   1.408       .  A
C923        C924   1.402   1_465  A
C923        H928   1.083   1_565  S
C924        C925   1.403       .  A
C924        H929   1.083       .  S
C925        C926   1.408   1_545  A
C926        H930   1.083       .  S
C931        C932   1.407       .  A
C931        C936   1.394       .  A
C931        H937   1.084       .  S
C932        C933   1.400       .  A
C933        C934   1.394       .  A
C933        H938   1.082       .  S
C934        C935   1.404       .  A
C934        H939   1.083       .  S
C935        C936   1.398       .  A
C936        H940   1.084       .  S
C941        C942   1.403       .  A
C941        C946   1.391       .  A
C941        H947   1.084       .  S
C942        C943   1.405       .  A
C943        C944   1.406       .  A
C943        H948   1.083       .  S
C944        C945   1.404       .  A
C944        H949   1.084       .  S
C945        C946   1.399       .  A
C946        H950   1.084       .  S
C951        C952   1.407       .  A
C951        C956   1.399       .  A
C951        H957   1.084       .  S
C952        C953   1.401       .  A
C953        C954   1.397       .  A
C953        H958   1.083       .  S
C954        C955   1.406       .  A
C954        H959   1.084       .  S
C955        C956   1.401       .  A
C956        H960   1.083       .  S
C961        C962   1.406       .  A
C961        C966   1.393       .  A
C961        H967   1.083       .  S
C962        C963   1.403       .  A
C963        C964   1.403       .  A
C963        H968   1.082       .  S
C964        C965   1.408       .  A
C964        H969   1.083       .  S
C965        C966   1.400       .  A
C966        H970   1.083       .  S
C971        C972   1.409       .  A
C971        C976   1.400       .  A
C971        H977   1.083       .  S
C972        C973   1.401       .  A
C973        C974   1.398       .  A
C973        H978   1.083       .  S
C974        C975   1.408       .  A
C974        H979   1.083       .  S
C975        C976   1.401       .  A
C976        H980   1.084       .  S
C981        C982   1.402       .  A
C981        C986   1.398       .  A
C981        H987   1.083       .  S
C982        C983   1.409       .  A
C983        C984   1.402       .  A
C983        H988   1.083       .  S
C984        C985   1.402       .  A
C984        H989   1.083       .  S
C985        C986   1.407       .  A
C986        H990   1.084       .  S
C991        C992   1.408       .  A
C991        C996   1.407       .  A
C991        H997   1.084       .  S
C992        C993   1.400       .  A
C993        C994   1.392       .  A
C993        H998   1.083       .  S
C994        C995   1.406       .  A
C994        H999   1.083       .  S
C995        C996   1.406       .  A
C996       H1000   1.083       .  S
C1001      C1002   1.399       .  A
C1001      C1006   1.397       .  A
C1001      H1007   1.083       .  S
C1002      C1003   1.407   1_655  A
C1003      C1004   1.397       .  A
C1003      H1008   1.083       .  S
C1004      C1005   1.399       .  A
C1004      H1009   1.083       .  S
C1005      C1006   1.407   1_455  A
C1006      H1010   1.083       .  S
C1011      C1012   1.406   1_655  A
C1011      C1016   1.398       .  A
C1011      H1017   1.083       .  S
C1012      C1013   1.402       .  A
C1013      C1014   1.399       .  A
C1013      H1018   1.083       .  S
C1014      C1015   1.406   1_455  A
C1014      H1019   1.083       .  S
C1015      C1016   1.402       .  A
C1016      H1020   1.083       .  S
C1021      C1022   1.408       .  A
C1021      C1026   1.400       .  A
C1021      H1027   1.083       .  S
C1022      C1023   1.404       .  A
C1023      C1024   1.402       .  A
C1023      H1028   1.083       .  S
C1024      C1025   1.407       .  A
C1024      H1029   1.084       .  S
C1025      C1026   1.401       .  A
C1026      H1030   1.083       .  S
C1031      C1032   1.402       .  A
C1031      C1036   1.401       .  A
C1031      H1037   1.083       .  S
C1032      C1033   1.410       .  A
C1033      C1034   1.402       .  A
C1033      H1038   1.083       .  S
C1034      C1035   1.402       .  A
C1034      H1039   1.083       .  S
C1035      C1036   1.409       .  A
C1036      H1040   1.083       .  S
C1041      C1042   1.407   1_554  A
C1041      C1046   1.405   1_554  A
C1041      H1047   1.084       .  S
C1042      C1043   1.404       .  A
C1043      C1044   1.400       .  A
C1043      H1048   1.083       .  S
C1044      C1045   1.406       .  A
C1044      H1049   1.084       .  S
C1045      C1046   1.405       .  A
C1046      H1050   1.082       .  S
C1051      C1052   1.410       .  A
C1051      C1056   1.404       .  A
C1051      H1057   1.083       .  S
C1052      C1053   1.401   1_556  A
C1053      C1054   1.399       .  A
C1053      H1058   1.083       .  S
C1054      C1055   1.410   1_554  A
C1054      H1059   1.083       .  S
C1055      C1056   1.403       .  A
C1056      H1060   1.083       .  S
C1061      C1062   1.405       .  A
C1061      C1066   1.399       .  A
C1061      H1067   1.083       .  S
C1062      C1063   1.402       .  A
C1063      C1064   1.390       .  A
C1063      H1068   1.083       .  S
C1064      C1065   1.401       .  A
C1064      H1069   1.083       .  S
C1065      C1066   1.404       .  A
C1066      H1070   1.083       .  S
C1071      C1072   1.407       .  A
C1071      C1076   1.394       .  A
C1071      H1077   1.082       .  S
C1072      C1073   1.404       .  A
C1073      C1074   1.402       .  A
C1073      H1078   1.083       .  S
C1074      C1075   1.408       .  A
C1074      H1079   1.083       .  S
C1075      C1076   1.401       .  A
C1076      H1080   1.083       .  S
C1081      C1082   1.406   1_556  A
C1081      C1086   1.395       .  A
C1081      H1087   1.083       .  S
C1082      C1083   1.404       .  A
C1083      C1084   1.401       .  A
C1083      H1088   1.083       .  S
C1084      C1085   1.407       .  A
C1084      H1089   1.083       .  S
C1085      C1086   1.402   1_554  A
C1086      H1090   1.083       .  S
C1091      C1092   1.396   1_556  A
C1091      C1096   1.390       .  A
C1091      H1097   1.083       .  S
C1092      C1093   1.407       .  A
C1093      C1094   1.391       .  A
C1093      H1098   1.083       .  S
C1094      C1095   1.396       .  A
C1094      H1099   1.083       .  S
C1095      C1096   1.408   1_554  A
C1096      H1100   1.083       .  S
C1101      C1102   1.406       .  A
C1101      C1106   1.389   1_545  A
C1101      H1107   1.084       .  S
C1102      C1103   1.398   1_554  A
C1103      C1104   1.393   1_545  A
C1103      H1108   1.083       .  S
C1104      C1105   1.407   1_556  A
C1104      H1109   1.083       .  S
C1105      C1106   1.397       .  A
C1106      H1110   1.083       .  S
C1111      C1112   1.407       .  A
C1111      C1116   1.403       .  A
C1111      H1117   1.084   1_554  S
C1112      C1113   1.402       .  A
C1113      C1114   1.397       .  A
C1113      H1118   1.083       .  S
C1114      C1115   1.405       .  A
C1114      H1119   1.084       .  S
C1115      C1116   1.403       .  A
C1116      H1120   1.083       .  S
C1121      C1122   1.411       .  A
C1121      C1126   1.405       .  A
C1121      H1127   1.083       .  S
C1122      C1123   1.402       .  A
C1123      C1124   1.402       .  A
C1123      H1128   1.083       .  S
C1124      C1125   1.410       .  A
C1124      H1129   1.083       .  S
C1125      C1126   1.403       .  A
C1126      H1130   1.084       .  S
C1131      C1132   1.399       .  A
C1131      C1136   1.398       .  A
C1131      H1137   1.084       .  S
C1132      C1133   1.409       .  A
C1133      C1134   1.402       .  A
C1133      H1138   1.084       .  S
C1134      C1135   1.401       .  A
C1134      H1139   1.082       .  S
C1135      C1136   1.410       .  A
C1136      H1140   1.083       .  S
C1141      C1142   1.403       .  A
C1141      C1146   1.401       .  A
C1141      H1147   1.083       .  S
C1142      C1143   1.407       .  A
C1143      C1144   1.403       .  A
C1143      H1148   1.084       .  S
C1144      C1145   1.404       .  A
C1144      H1149   1.083       .  S
C1145      C1146   1.407       .  A
C1146      H1150   1.083       .  S
C1151      C1152   1.407       .  A
C1151      C1156   1.401       .  A
C1151      H1157   1.083       .  S
C1152      C1153   1.402       .  A
C1153      C1154   1.394       .  A
C1153      H1158   1.083       .  S
C1154      C1155   1.406       .  A
C1154      H1159   1.082       .  S
C1155      C1156   1.404       .  A
C1156      H1160   1.083       .  S
C1161      C1162   1.403       .  A
C1161      C1166   1.406       .  A
C1161      H1167   1.083       .  S
C1162      C1163   1.411       .  A
C1163      C1164   1.398       .  A
C1163      H1168   1.083       .  S
C1164      C1165   1.398       .  A
C1164      H1169   1.083       .  S
C1165      C1166   1.411       .  A
C1166      H1170   1.084       .  S
C1171      C1172   1.408       .  A
C1171      C1176   1.392       .  A
C1171      H1177   1.083       .  S
C1172      C1173   1.403       .  A
C1173      C1174   1.404       .  A
C1173      H1178   1.082       .  S
C1174      C1175   1.410   1_545  A
C1174      H1179   1.083   1_545  S
C1175      C1176   1.400   1_565  A
C1176      H1180   1.083       .  S
C1181      C1182   1.405       .  A
C1181      C1186   1.404       .  A
C1181      H1187   1.083       .  S
C1182      C1183   1.406       .  A
C1183      C1184   1.403       .  A
C1183      H1188   1.083       .  S
C1184      C1185   1.404       .  A
C1184      H1189   1.083       .  S
C1185      C1186   1.407       .  A
C1186      H1190   1.083       .  S
C1191      C1192   1.406       .  A
C1191      C1196   1.394       .  A
C1191      H1197   1.083       .  S
C1192      C1193   1.398       .  A
C1193      C1194   1.395       .  A
C1193      H1198   1.084       .  S
C1194      C1195   1.406       .  A
C1194      H1199   1.083       .  S
C1195      C1196   1.399       .  A
C1196      H1200   1.083       .  S
C1201      C1202   1.404       .  A
C1201      C1206   1.398       .  A
C1201      H1207   1.082       .  S
C1202      C1203   1.404       .  A
C1203      C1204   1.402       .  A
C1203      H1208   1.084       .  S
C1204      C1205   1.407       .  A
C1204      H1209   1.083       .  S
C1205      C1206   1.404       .  A
C1206      H1210   1.083       .  S
C1211      C1212   1.402       .  A
C1211      C1216   1.404       .  A
C1211      H1217   1.082       .  S
C1212      C1213   1.409       .  A
C1213      C1214   1.399       .  A
C1213      H1218   1.084       .  S
C1214      C1215   1.402       .  A
C1214      H1219   1.083       .  S
C1215      C1216   1.410       .  A
C1216      H1220   1.083       .  S
C1221      C1222   1.408       .  A
C1221      C1226   1.396       .  A
C1221      H1227   1.082       .  S
C1222      C1223   1.401       .  A
C1223      C1224   1.399       .  A
C1223      H1228   1.083       .  S
C1224      C1225   1.409       .  A
C1224      H1229   1.082       .  S
C1225      C1226   1.400       .  A
C1226      H1230   1.083       .  S
C1231      C1232   1.409   1_545  A
C1231      C1236   1.396       .  A
C1231      H1237   1.083       .  S
C1232      C1233   1.401       .  A
C1233      C1234   1.401       .  A
C1233      H1238   1.083       .  S
C1234      C1235   1.408   1_565  A
C1234      H1239   1.083       .  S
C1235      C1236   1.398       .  A
C1236      H1240   1.084       .  S
C1241      C1242   1.401   1_455  A
C1241      C1246   1.397       .  A
C1241      H1247   1.082       .  S
C1242      C1243   1.407       .  A
C1243      C1244   1.399       .  A
C1243      H1248   1.084       .  S
C1244      C1245   1.401   1_655  A
C1244      H1249   1.083       .  S
C1245      C1246   1.405       .  A
C1246      H1250   1.083       .  S
C1251      C1252   1.403       .  A
C1251      C1256   1.399       .  A
C1251      H1257   1.083       .  S
C1252      C1253   1.407   1_565  A
C1253      C1254   1.399       .  A
C1253      H1258   1.083       .  S
C1254      C1255   1.403       .  A
C1254      H1259   1.082       .  S
C1255      C1256   1.407   1_545  A
C1256      H1260   1.083       .  S
C1261      C1262   1.408       .  A
C1261      C1266   1.403       .  A
C1261      H1267   1.083       .  S
C1262      C1263   1.403       .  A
C1263      C1264   1.397       .  A
C1263      H1268   1.083       .  S
C1264      C1265   1.405       .  A
C1264      H1269   1.083       .  S
C1265      C1266   1.403       .  A
C1266      H1270   1.084       .  S
C1271      C1272   1.401       .  A
C1271      C1276   1.391       .  A
C1271      H1277   1.083       .  S
C1272      C1273   1.404       .  A
C1273      C1274   1.399       .  A
C1273      H1278   1.083       .  S
C1274      C1275   1.404       .  A
C1274      H1279   1.083       .  S
C1275      C1276   1.403       .  A
C1276      H1280   1.083       .  S
C1281      C1282   1.404       .  A
C1281      C1286   1.403       .  A
C1281      H1287   1.082       .  S
C1282      C1283   1.404       .  A
C1283      C1284   1.386       .  A
C1283      H1288   1.083       .  S
C1284      C1285   1.398       .  A
C1284      H1289   1.084       .  S
C1285      C1286   1.407       .  A
C1286      H1290   1.083       .  S
C1291      C1292   1.403       .  A
C1291      C1296   1.402       .  A
C1291      H1297   1.081       .  S
C1292      C1293   1.408       .  A
C1293      C1294   1.393       .  A
C1293      H1298   1.084       .  S
C1294      C1295   1.400       .  A
C1294      H1299   1.082       .  S
C1295      C1296   1.409       .  A
C1296      H1300   1.084       .  S
C1301      C1302   1.407       .  A
C1301      C1306   1.405   1_655  A
C1301      H1307   1.084       .  S
C1302      C1303   1.405   1_655  A
C1303      C1304   1.404       .  A
C1303      H1308   1.083       .  S
C1304      C1305   1.407       .  A
C1304      H1309   1.083       .  S
C1305      C1306   1.406       .  A
C1306      H1310   1.083       .  S
C1311      C1312   1.408       .  A
C1311      C1316   1.402       .  A
C1311      H1317   1.083       .  S
C1312      C1313   1.403       .  A
C1313      C1314   1.403       .  A
C1313      H1318   1.083       .  S
C1314      C1315   1.408       .  A
C1314      H1319   1.083       .  S
C1315      C1316   1.403       .  A
C1316      H1320   1.083       .  S
C1321      C1322   1.399       .  A
C1321      C1326   1.396       .  A
C1321      H1327   1.083       .  S
C1322      C1323   1.407       .  A
C1323      C1324   1.396       .  A
C1323      H1328   1.083       .  S
C1324      C1325   1.399       .  A
C1324      H1329   1.084       .  S
C1325      C1326   1.407       .  A
C1326      H1330   1.083       .  S
C1331      C1332   1.402       .  A
C1331      C1336   1.400       .  A
C1331      H1337   1.083       .  S
C1332      C1333   1.410       .  A
C1333      C1334   1.402       .  A
C1333      H1338   1.083       .  S
C1334      C1335   1.402       .  A
C1334      H1339   1.082       .  S
C1335      C1336   1.410       .  A
C1336      H1340   1.084       .  S
C1341      C1342   1.406       .  A
C1341      C1346   1.401       .  A
C1341      H1347   1.083       .  S
C1342      C1343   1.402       .  A
C1343      C1344   1.393       .  A
C1343      H1348   1.083       .  S
C1344      C1345   1.406       .  A
C1344      H1349   1.083       .  S
C1345      C1346   1.404       .  A
C1346      H1350   1.082       .  S
C1351      C1352   1.408       .  A
C1351      C1356   1.403       .  A
C1351      H1357   1.084       .  S
C1352      C1353   1.402       .  A
C1353      C1354   1.402       .  A
C1353      H1358   1.083       .  S
C1354      C1355   1.408       .  A
C1354      H1359   1.083       .  S
C1355      C1356   1.404       .  A
C1356      H1360   1.083       .  S
