geometry optimzed in LAMMPS
_audit_creation_date              2020-11-30 
_audit_creation_method            'lammps2cif' 
_symmetry_space_group_name_H-M    'P1' 
_symmetry_Int_Tables_number       1 
_symmetry_cell_setting            triclinic 
loop_ 
_symmetry_equiv_pos_as_xyz 
  x,y,z 
_cell_length_a                    44.95913894 
_cell_length_b                    44.83076536198416 
_cell_length_c                    44.763484809521756 
_cell_angle_alpha                 90.16081067423322 
_cell_angle_beta                  89.97745824610203 
_cell_angle_gamma                 90.12304729436134 
loop_ 
_atom_site_label 
_atom_site_type_symbol 
_atom_site_fract_x 
_atom_site_fract_y 
_atom_site_fract_z 
_atom_site_charge 
N1          N  0.99636696  0.25804949  0.25780181    -0.01600
C2          C  0.00141979  0.22827143  0.25935954     0.01000
C3          C  0.00028955  0.21536404  0.23133640    -0.21900
C4          C  0.99422898  0.23787146  0.21166569    -0.22100
C5          C  0.99194498  0.26371139  0.22838581     0.00900
H6          H  0.00298809  0.19198166  0.22591045     0.14700
H7          H  0.99231793  0.23578394  0.18764830     0.14700
O8          O  0.99652298  0.40698122  0.44797121    -0.78200
O9          O  0.00085285  0.57636476  0.44784179    -0.79800
O10         O  0.95099067  0.49300047  0.41188926    -0.76800
O11         O  0.04738159  0.48969112  0.41251466    -0.75200
O12         O  0.08417389  0.48900424  0.44758411    -0.77000
O13         O  0.91369976  0.49485142  0.44652564    -0.77900
O14         O  0.00035544  0.54087926  0.41130701    -0.79200
O15         O  0.99727181  0.44279784  0.41194579    -0.79500
Eu16       Eu  0.99896779  0.49204988  0.43680730     2.39200
O17         O  0.03029239  0.52172697  0.46666908    -0.87000
O18         O  0.96741035  0.46310063  0.46690386    -0.90700
C19         C  0.99673681  0.41522482  0.42032768     1.04000
C20         C  0.00079362  0.56836829  0.42012870     1.03900
C21         C  0.92334891  0.49400855  0.41926101     1.03800
C22         C  0.07494337  0.48856697  0.42020866     1.01700
H23         H  0.95703355  0.53626494  0.45385714     0.31400
O24         O  0.96881220  0.52334848  0.46631077    -0.99400
H25         H  0.04036273  0.44819786  0.45482254     0.31400
O26         O  0.02846366  0.46121235  0.46712533    -1.02000
O27         O  0.00160321  0.57677624  0.54626878    -0.79200
O28         O  0.99728306  0.40795934  0.54680916    -0.78700
O29         O  0.91523944  0.54506443  0.49886778    -0.77200
O30         O  0.08437712  0.54114345  0.49809673    -0.80500
O31         O  0.08203508  0.44031736  0.49984895    -0.78400
O32         O  0.91180608  0.44572654  0.49678147    -0.77000
O33         O  0.95012118  0.49474664  0.58105475    -0.78500
O34         O  0.04611345  0.49116215  0.58181563    -0.80500
O35         O  0.91315261  0.49601220  0.54623500    -0.77200
O36         O  0.08336305  0.49091542  0.54711664    -0.79900
O37         O  0.95334500  0.57891593  0.49939377    -0.75600
O38         O  0.94734640  0.40908976  0.49563556    -0.75600
O39         O  0.04448054  0.40591436  0.49891256    -0.75300
O40         O  0.04792113  0.57646540  0.49730842    -0.78800
O41         O  0.00054539  0.54098724  0.58229438    -0.78200
O42         O  0.99839465  0.44426181  0.58251962    -0.76500
Eu43       Eu  0.00007216  0.55207901  0.49693131     2.39800
Eu44       Eu  0.99678771  0.43205200  0.49711959     2.39600
Eu45       Eu  0.93726448  0.49438890  0.49664243     2.38400
Eu46       Eu  0.06000196  0.49098798  0.49714563     2.39900
Eu47       Eu  0.99830575  0.49246043  0.55674197     2.39800
O48         O  0.02810359  0.46167786  0.52688197    -0.91000
O49         O  0.96861205  0.52344556  0.52709037    -0.89800
C50         C  0.00174298  0.56847248  0.57389585     1.04200
C51         C  0.99816246  0.41664507  0.57438466     1.02900
C52         C  0.92558243  0.57201926  0.50028835     1.02300
C53         C  0.07534408  0.56863449  0.49824945     1.04300
C54         C  0.07223773  0.41310868  0.50030431     1.03300
C55         C  0.92014548  0.41818747  0.49575028     1.02100
C56         C  0.92255174  0.49596284  0.57354593     1.02200
C57         C  0.07373697  0.49114609  0.57436274     1.04800
H58         H  0.95416777  0.45089276  0.53961495     0.32100
O59         O  0.96671774  0.46297378  0.52700622    -1.03100
H60         H  0.04223472  0.53398258  0.53972890     0.34200
O61         O  0.02984147  0.52172675  0.52710474    -1.05700
N62         N  0.01549791  0.73149359  0.72870669    -0.01600
C63         C  0.01347723  0.72939121  0.75886656     0.01000
C64         C  0.01813968  0.75698621  0.77193737    -0.21900
C65         C  0.02318680  0.77673406  0.74911008    -0.22100
C66         C  0.02138844  0.76057613  0.72286560     0.00900
H67         H  0.01778841  0.76219074  0.79555867     0.14700
H68         H  0.02660277  0.80054382  0.75131370     0.14700
N69         N  0.00774073  0.25760393  0.73379391    -0.01600
C70         C  0.01325659  0.22828314  0.72893749     0.01000
C71         C  0.01523650  0.21301087  0.75561115    -0.21900
C72         C  0.01049279  0.23353722  0.77781011    -0.22100
C73         C  0.00583116  0.26061958  0.76389262     0.00900
H74         H  0.01861379  0.18929951  0.75852791     0.14700
H75         H  0.01030414  0.22919079  0.80158242     0.14700
N76         N  0.01742084  0.72896618  0.26376681    -0.01600
C77         C  0.01936321  0.72318499  0.23408128     0.01000
C78         C  0.02833804  0.74816481  0.21850391    -0.21900
C79         C  0.03198331  0.77037822  0.23911851    -0.22100
C80         C  0.02504520  0.75813388  0.26652643     0.00900
H81         H  0.03093660  0.75018891  0.19455385     0.14700
H82         H  0.03753945  0.79340749  0.23447504     0.14700
O83         O  0.99821955  0.04411426  0.40726381    -0.78200
O84         O  0.99824006  0.04840177  0.57752411    -0.79800
O85         O  0.94955873  0.08231436  0.49081767    -0.76800
O86         O  0.04651384  0.08077745  0.49368260    -0.75200
O87         O  0.08190778  0.04446342  0.49456964    -0.77000
O88         O  0.91310222  0.04701558  0.49137328    -0.77900
O89         O  0.99804349  0.08262241  0.53990689    -0.79200
O90         O  0.99822888  0.07959787  0.44393936    -0.79500
Eu91       Eu  0.99773154  0.05619204  0.49267438     2.39200
O92         O  0.02744816  0.02650753  0.52378131    -0.87000
O93         O  0.96733128  0.02643734  0.46232539    -0.90700
C94         C  0.99863525  0.07145659  0.41638344     1.04000
C95         C  0.99826634  0.07557286  0.56770517     1.03900
C96         C  0.92189970  0.07448847  0.49043245     1.03800
C97         C  0.07383050  0.07207952  0.49452660     1.01700
H98         H  0.95524561  0.04064638  0.53622277     0.31400
O99         O  0.96754852  0.02757403  0.52434720    -0.99400
H100        H  0.04059856  0.03790404  0.45018614     0.31400
O101        O  0.02785087  0.02570644  0.46250546    -1.02000
O102        O  0.99911665  0.94761147  0.58030388    -0.79200
O103        O  0.99747130  0.94577607  0.40896182    -0.78700
O104        O  0.91281481  0.99954016  0.54244119    -0.77200
O105        O  0.08239053  0.99645509  0.54173768    -0.80500
O106        O  0.08164964  0.99400480  0.44550939    -0.78400
O107        O  0.91231697  0.99667210  0.44581760    -0.77000
O108        O  0.94719890  0.91255269  0.49574365    -0.78500
O109        O  0.04553098  0.91085849  0.49382991    -0.80500
O110        O  0.91183999  0.94898237  0.49548454    -0.77200
O111        O  0.08180157  0.94640704  0.49378313    -0.79900
O112        O  0.94780469  0.99879941  0.57947717    -0.75600
O113        O  0.94712708  0.99553607  0.40857223    -0.75600
O114        O  0.04716944  0.99395985  0.40816080    -0.75300
O115        O  0.04744106  0.99971474  0.57886031    -0.78800
O116        O  0.99790534  0.91271249  0.54292324    -0.78200
O117        O  0.99686378  0.91137284  0.44636095    -0.76500
Eu118      Eu  0.99743386  0.99748911  0.55555948     2.39800
Eu119      Eu  0.99722819  0.99541947  0.43219560     2.39600
Eu120      Eu  0.93733666  0.99753860  0.49393477     2.38400
Eu121      Eu  0.05707739  0.99556598  0.49374975     2.39900
Eu122      Eu  0.99661346  0.93658758  0.49450308     2.39800
O123        O  0.02694209  0.96546653  0.46332538    -0.91000
O124        O  0.96692606  0.96736533  0.52492514    -0.89800
C125        C  0.99964607  0.92030479  0.57058523     1.04200
C126        C  0.99741166  0.91866100  0.41858286     1.02900
C127        C  0.92056636  0.99970051  0.57013946     1.02300
C128        C  0.07461186  0.99836486  0.56935097     1.04300
C129        C  0.07438468  0.99364529  0.41773591     1.03300
C130        C  0.91988676  0.99577334  0.41810036     1.02100
C131        C  0.91982804  0.92134091  0.49599000     1.02200
C132        C  0.07322652  0.91886938  0.49366715     1.04800
H133        H  0.95405110  0.95367479  0.45161408     0.32100
O134        O  0.96671654  0.96632603  0.46360401    -1.03100
H135        H  0.03963890  0.95410303  0.53721410     0.34200
O136        O  0.02703395  0.96647250  0.52499519    -1.05700
N137        N  0.23570937  0.22784786  0.50410136    -0.01600
C138        C  0.23171054  0.25731598  0.51025066     0.01000
C139        C  0.25875997  0.27202131  0.51057128    -0.21900
C140        C  0.28010706  0.25116538  0.50424503    -0.22100
C141        C  0.26552669  0.22430518  0.50033811     0.00900
H142        H  0.26248577  0.29560639  0.51423676     0.14700
H143        H  0.30382758  0.25508744  0.50283077     0.14700
N144        N  0.76025168  0.23154290  0.48871335    -0.01600
C145        C  0.76167389  0.26161296  0.48482267     0.01000
C146        C  0.73371743  0.27418876  0.48691434    -0.21900
C147        C  0.71426567  0.25137453  0.49233887    -0.22100
C148        C  0.73092788  0.22558409  0.49333306     0.00900
H149        H  0.72822194  0.29764427  0.48561052     0.14700
H150        H  0.69043340  0.25329831  0.49515924     0.14700
N151        N  0.76482274  0.75881346  0.50195006    -0.01600
C152        C  0.73497665  0.75954583  0.49765677     0.01000
C153        C  0.72311888  0.73111234  0.49905563    -0.21900
C154        C  0.74643479  0.71216303  0.50431904    -0.22100
C155        C  0.77166225  0.72968175  0.50601279     0.00900
H156        H  0.69999759  0.72485755  0.49646500     0.14700
H157        H  0.74529929  0.68810019  0.50587734     0.14700
N158        N  0.23254678  0.75869628  0.48956927    -0.01600
C159        C  0.22986269  0.72883829  0.49400297     0.01000
C160        C  0.25704649  0.71481236  0.49136616    -0.21900
C161        C  0.27740430  0.73656876  0.48505678    -0.22100
C162        C  0.26195643  0.76316595  0.48405658     0.00900
H163        H  0.26146988  0.69118661  0.49347895     0.14700
H164        H  0.30110843  0.73346605  0.48220325     0.14700
N165        N  0.73287065  0.99130647  0.25744875    -0.01600
C166        C  0.76234370  0.98541680  0.26072450     0.01000
C167        C  0.77633454  0.98447478  0.23323162    -0.21900
C168        C  0.75499333  0.99000737  0.21222830    -0.22100
C169        C  0.72868416  0.99413460  0.22755729     0.00900
H170        H  0.79976545  0.98093452  0.22898620     0.14700
H171        H  0.75823111  0.99088977  0.18828323     0.14700
O172        O  0.45191380  0.07768079  0.49374531    -0.78200
O173        O  0.44770987  0.90675336  0.49627187    -0.79800
O174        O  0.41402734  0.99091625  0.44718788    -0.76800
O175        O  0.41516108  0.99359237  0.54535731    -0.75200
O176        O  0.45095716  0.99318551  0.58136461    -0.77000
O177        O  0.44956301  0.98954754  0.41086474    -0.77900
O178        O  0.41439548  0.94502376  0.49698082    -0.79200
O179        O  0.41627279  0.04128662  0.49342382    -0.79500
Eu180      Eu  0.43983046  0.99251369  0.49605730     2.39200
O181        O  0.46900030  0.96151831  0.52650842    -0.87000
O182        O  0.47010523  0.02208464  0.46547111    -0.90700
C183        C  0.42451799  0.06880218  0.49272741     1.04000
C184        C  0.42081300  0.91714254  0.49642932     1.03900
C185        C  0.42204941  0.98976232  0.41944843     1.03800
C186        C  0.42348462  0.99365769  0.57300121     1.01700
H187        H  0.45610559  0.94831490  0.45376217     0.31400
O188        O  0.46880523  0.96055791  0.46616925    -0.99400
H189        H  0.45781228  0.03579279  0.53853348     0.31400
O190        O  0.47004256  0.02305059  0.52618850    -1.02000
O191        O  0.54779201  0.90509319  0.49416248    -0.79200
O192        O  0.55137612  0.07462663  0.49553073    -0.78700
O193        O  0.49998241  0.94154163  0.41108076    -0.77200
O194        O  0.49908796  0.94405133  0.58154576    -0.80500
O195        O  0.50192868  0.04097214  0.58046777    -0.78400
O196        O  0.49880918  0.03899547  0.41085459    -0.77000
O197        O  0.58412877  0.99061494  0.44692711    -0.78500
O198        O  0.58368509  0.99001341  0.54564574    -0.91900
O199        O  0.54819393  0.99060078  0.41099382    -0.77200
O200        O  0.54810914  0.99161677  0.58186362    -0.79900
O201        O  0.49967569  0.90508323  0.44682369    -0.75600
O202        O  0.50086467  0.07611881  0.44575907    -0.75600
O203        O  0.50239005  0.07735359  0.54483915    -0.75300
O204        O  0.49862298  0.90639388  0.54710356    -0.78800
O205        O  0.58294460  0.94184705  0.49425563    -0.78200
O206        O  0.58574109  0.03712457  0.49687203    -0.76500
Eu207      Eu  0.49826770  0.92945740  0.49664421     2.39800
Eu208      Eu  0.50085035  0.05252935  0.49547419     2.39600
Eu209      Eu  0.49903880  0.99038413  0.43552535     2.38400
Eu210      Eu  0.49963287  0.99204530  0.55628347     2.39900
Eu211      Eu  0.55912854  0.99008985  0.49609164     2.39800
O212        O  0.53024901  0.02173942  0.52603377    -0.91000
O213        O  0.52845403  0.95983973  0.46619867    -0.89800
C214        C  0.57511765  0.91429944  0.49325204     1.04200
C215        C  0.57842505  0.06482035  0.49640247     1.02900
C216        C  0.50021589  0.91400289  0.41932836     1.02300
C217        C  0.49899042  0.91622915  0.57437039     1.04300
C218        C  0.50281197  0.06852276  0.57233259     1.03300
C219        C  0.49973297  0.06675058  0.41843171     1.02100
C220        C  0.57572309  0.99092328  0.41930794     1.02200
C221        C  0.57554686  0.99086457  0.57336458     1.04800
H222        H  0.54260774  0.03276643  0.45282545     0.32100
O223        O  0.52989080  0.02076592  0.46539644    -1.03100
H224        H  0.54143118  0.94780840  0.53914354     0.34200
O225        O  0.52899495  0.96010080  0.52663836    -1.05700
N226        N  0.26244844  0.00578415  0.72937138    -0.01600
C227        C  0.26632719  0.01076290  0.75906203     0.01000
C228        C  0.23929409  0.01052696  0.77377237    -0.21900
C229        C  0.21797758  0.00532606  0.75257442    -0.22100
C230        C  0.23265524  0.00251701  0.72561503     0.00900
H231        H  0.23554579  0.01330131  0.79750229     0.14700
H232        H  0.19422733  0.00399012  0.75632240     0.14700
N233        N  0.73459005  0.01549049  0.73141618    -0.01600
C234        C  0.76322239  0.02384642  0.72647954     0.01000
C235        C  0.77782134  0.02903393  0.75312085    -0.21900
C236        C  0.75772320  0.02340819  0.77539446    -0.22100
C237        C  0.73149636  0.01502503  0.76159973     0.00900
H238        H  0.80107778  0.03460809  0.75603575     0.14700
H239        H  0.76193355  0.02463009  0.79917394     0.14700
N240        N  0.26324997  0.97607453  0.25888569    -0.01600
C241        C  0.26776871  0.96912362  0.22969126     0.01000
C242        C  0.24102365  0.96408905  0.21532872    -0.21900
C243        C  0.21915425  0.96830156  0.23620492    -0.22100
C244        C  0.23330840  0.97568547  0.26260307     0.00900
H245        H  0.23774136  0.95945906  0.19181231     0.14700
H246        H  0.19541465  0.96686903  0.23242694     0.14700
O247        O  0.58206707  0.99913445  0.04399722    -0.78200
O248        O  0.41204321  0.99640491  0.04265074    -0.79800
O249        O  0.49697393  0.04498752  0.07920274    -0.76800
O250        O  0.49799276  0.94728259  0.07979356    -0.75200
O251        O  0.49818360  0.91142790  0.04365045    -0.77000
O252        O  0.49742399  0.08124500  0.04361691    -0.77900
O253        O  0.44842916  0.99637175  0.07833166    -0.79200
O254        O  0.54491081  0.99859705  0.07880014    -0.79500
Eu255      Eu  0.49684446  0.99623113  0.05408853     2.39200
O256        O  0.46628027  0.96603405  0.02408441    -0.87000
O257        O  0.52758097  0.02650958  0.02433716    -0.90700
C258        C  0.57249416  0.99974134  0.07118253     1.04000
C259        C  0.42098594  0.99648880  0.07013347     1.03900
C260        C  0.49724197  0.07262136  0.07123296     1.03800
C261        C  0.49853918  0.91965745  0.07133803     1.01700
H262        H  0.45421851  0.03902261  0.03602242     0.31400
O263        O  0.46654552  0.02640681  0.02373722    -0.99400
H264        H  0.54044926  0.95423499  0.03730400     0.31400
O265        O  0.52824328  0.96651871  0.02465641    -1.02000
O266        O  0.41363938  0.99713329  0.94258280    -0.79200
O267        O  0.58378790  0.99549515  0.94551026    -0.78700
O268        O  0.44946859  0.08083782  0.99175718    -0.77200
O269        O  0.44988563  0.91140384  0.99370612    -0.80500
O270        O  0.54564142  0.91178559  0.99390568    -0.78400
O271        O  0.54519589  0.08176000  0.99358251    -0.77000
O272        O  0.49723321  0.04313906  0.90839194    -0.78500
O273        O  0.49892709  0.94591928  0.90920421    -0.80500
O274        O  0.49643724  0.07973163  0.94383513    -0.77200
O275        O  0.49831537  0.91085001  0.94589618    -0.79900
O276        O  0.41240233  0.04605094  0.99100670    -0.75600
O277        O  0.58245678  0.04732551  0.99384711    -0.75600
O278        O  0.58266153  0.94672970  0.99422279    -0.75300
O279        O  0.41280309  0.94603090  0.99191882    -0.78800
O280        O  0.45123969  0.99609765  0.90840748    -0.78200
O281        O  0.54727605  0.99484125  0.91016235    -0.76500
Eu282      Eu  0.43625881  0.99609976  0.99304804     2.39800
Eu283      Eu  0.55895717  0.99683048  0.99444558     2.39600
Eu284      Eu  0.49749456  0.05629113  0.99386161     2.38400
Eu285      Eu  0.49771000  0.93637725  0.99459418     2.39900
Eu286      Eu  0.49865391  0.99510675  0.93408600     2.39800
O287        O  0.52888403  0.96571604  0.96455222    -0.91000
O288        O  0.46791019  0.02555591  0.96352871    -0.89800
C289        C  0.42354323  0.99722074  0.91541308     1.04200
C290        C  0.57478120  0.99481509  0.91812226     1.02900
C291        C  0.42185284  0.07338460  0.99063035     1.02300
C292        C  0.42231153  0.91878213  0.99233173     1.04300
C293        C  0.57323135  0.91937491  0.99378785     1.03300
C294        C  0.57288024  0.07461213  0.99360028     1.02100
C295        C  0.49634083  0.07077589  0.91632000     1.02200
C296        C  0.49879041  0.91853689  0.91813142     1.04800
H297        H  0.54067471  0.03890709  0.95113387     0.32100
O298        O  0.52853498  0.02646957  0.96376064    -1.03100
H299        H  0.45544329  0.95293501  0.95089838     0.34200
O300        O  0.46735944  0.96553273  0.96363044    -1.05700
N301        N  0.48313110  0.23024397  0.23284380    -0.01600
C302        C  0.48365103  0.22688965  0.26299798     0.01000
C303        C  0.47721682  0.25353514  0.27711502    -0.21900
C304        C  0.47262754  0.27415031  0.25504892    -0.22100
C305        C  0.47653919  0.25946507  0.22814314     0.00900
H306        H  0.47625301  0.25756066  0.30094804     0.14700
H307        H  0.46805959  0.29763571  0.25827145     0.14700
N308        N  0.53641506  0.76166736  0.22776828    -0.01600
C309        C  0.54790192  0.73413408  0.22244037     0.01000
C310        C  0.56012037  0.72237030  0.24814222    -0.21900
C311        C  0.55583244  0.74308360  0.27023844    -0.22100
C312        C  0.54128099  0.76684343  0.25726746     0.00900
H313        H  0.56929924  0.70025565  0.25096360     0.14700
H314        H  0.56137915  0.74052579  0.29361725     0.14700
N315        N  0.52575002  0.75808342  0.76245560    -0.01600
C316        C  0.53433807  0.72952231  0.76693247     0.01000
C317        C  0.54329174  0.71649890  0.74042468    -0.21900
C318        C  0.53984736  0.73776861  0.71869367    -0.22100
C319        C  0.52909566  0.76296806  0.73282087     0.00900
H320        H  0.54997698  0.69356132  0.73702560     0.14700
H321        H  0.54385781  0.73493332  0.69501609     0.14700
N322        N  0.48748290  0.23042201  0.75872281    -0.01600
C323        C  0.48920548  0.22779434  0.72856456     0.01000
C324        C  0.48162332  0.25437433  0.71503085    -0.21900
C325        C  0.47499114  0.27409437  0.73753058    -0.22100
C326        C  0.47888652  0.25896824  0.76407309     0.00900
H327        H  0.48098380  0.25889948  0.69130409     0.14700
H328        H  0.46927740  0.29737676  0.73488392     0.14700
O329        O  0.00054323  0.41218153  0.04591462    -0.78200
O330        O  0.00120960  0.58304196  0.04524251    -0.79800
O331        O  0.05023601  0.49653767  0.07994014    -0.76800
O332        O  0.95278257  0.49727457  0.08062791    -0.75200
O333        O  0.91679730  0.49751969  0.04481862    -0.77000
O334        O  0.08631355  0.49532591  0.04419771    -0.77900
O335        O  0.00150185  0.54531289  0.07930938    -0.79200
O336        O  0.00172852  0.44958849  0.08054873    -0.79500
Eu337      Eu  0.00130124  0.49708940  0.05506622     2.39200
O338        O  0.97162655  0.52838179  0.02558466    -0.87000
O339        O  0.03066222  0.46579759  0.02534222    -0.90700
C340        C  0.00131588  0.42186654  0.07321677     1.04000
C341        C  0.00111019  0.57308086  0.07237065     1.03900
C342        C  0.07779495  0.49581061  0.07178189     1.03800
C343        C  0.92524859  0.49733468  0.07240795     1.01700
H344        H  0.04423206  0.53927832  0.03803979     0.31400
O345        O  0.03162345  0.52736915  0.02527570    -0.99400
H346        H  0.95769617  0.45464797  0.03832742     0.31400
O347        O  0.97032194  0.46667477  0.02573392    -1.02000
O348        O  0.00349854  0.58254620  0.94540574    -0.79200
O349        O  0.99981038  0.41133848  0.94586906    -0.78700
O350        O  0.08641831  0.54382581  0.99664800    -0.77200
O351        O  0.91696803  0.54632395  0.99604985    -0.80500
O352        O  0.91558474  0.45027550  0.99398935    -0.78400
O353        O  0.08418271  0.44699296  0.99598830    -0.77000
O354        O  0.04976816  0.49590306  0.91005513    -0.78500
O355        O  0.95221981  0.49693607  0.91033907    -0.80500
O356        O  0.08559377  0.49585646  0.94608309    -0.77200
O357        O  0.91658603  0.49772928  0.94653630    -0.79900
O358        O  0.05232062  0.58164319  0.99714388    -0.75600
O359        O  0.04845290  0.41056507  0.99596510    -0.75600
O360        O  0.94944766  0.41245756  0.99471413    -0.75300
O361        O  0.95222317  0.58300540  0.99521411    -0.78800
O362        O  0.00303420  0.54517083  0.91065193    -0.78200
O363        O  0.00013698  0.44826102  0.91066988    -0.76500
Eu364      Eu  0.00201554  0.55883979  0.99534887     2.39800
Eu365      Eu  0.99973080  0.43542760  0.99555609     2.39600
Eu366      Eu  0.06092863  0.49600344  0.99525008     2.38400
Eu367      Eu  0.94135988  0.49797414  0.99552328     2.39900
Eu368      Eu  0.00112503  0.49685822  0.93531253     2.39800
O369        O  0.97056134  0.46679500  0.96532950    -0.91000
O370        O  0.03165228  0.52730484  0.96522331    -0.89800
C371        C  0.00362345  0.57292639  0.91809533     1.04200
C372        C  0.99971907  0.42063912  0.91853926     1.02900
C373        C  0.07930926  0.57159881  0.99780649     1.02300
C374        C  0.92481568  0.57393783  0.99551757     1.04300
C375        C  0.92242606  0.42242579  0.99411747     1.03300
C376        C  0.07578574  0.41950713  0.99633840     1.02100
C377        C  0.07723674  0.49568011  0.91847432     1.02200
C378        C  0.92476047  0.49711332  0.91888838     1.04800
H379        H  0.04275391  0.45319993  0.95274658     0.32100
O380        O  0.03046889  0.46564718  0.96526842    -1.03100
H381        H  0.95924450  0.54050914  0.95255050     0.34200
O382        O  0.97154073  0.52822324  0.96515595    -1.05700
N383        N  0.76474183  0.50373070  0.23086314    -0.01600
C384        C  0.73523278  0.50825952  0.22627671     0.01000
C385        C  0.71979483  0.50729300  0.25295075    -0.21900
C386        C  0.74029346  0.50194872  0.27486035    -0.22100
C387        C  0.76753809  0.49991900  0.26081194     0.00900
H388        H  0.69599406  0.50931358  0.25596838     0.14700
H389        H  0.73590046  0.49999403  0.29854933     0.14700
N390        N  0.23493410  0.50511207  0.23347081    -0.01600
C391        C  0.26410695  0.51115635  0.22855155     0.01000
C392        C  0.27999828  0.51039577  0.25495233    -0.21900
C393        C  0.26008497  0.50354992  0.27703707    -0.22100
C394        C  0.23274732  0.50042299  0.26334653     0.00900
H395        H  0.30370509  0.51366427  0.25767549     0.14700
H396        H  0.26493201  0.50121924  0.30059657     0.14700
N397        N  0.23598764  0.49184170  0.75894155    -0.01600
C398        C  0.23261154  0.49712364  0.72934356     0.01000
C399        C  0.25966961  0.49575563  0.71481447    -0.21900
C400        C  0.28053470  0.48927257  0.73616800    -0.22100
C401        C  0.26547223  0.48698762  0.76299802     0.00900
H402        H  0.26363204  0.49829784  0.69110618     0.14700
H403        H  0.30421456  0.48681934  0.73260138     0.14700
N404        N  0.76435102  0.47327120  0.76239046    -0.01600
C405        C  0.76825221  0.47367571  0.73223354     0.01000
C406        C  0.74223149  0.46622436  0.71764165    -0.21900
C407        C  0.72136987  0.46119291  0.73924287    -0.22100
C408        C  0.73524741  0.46580164  0.76638999     0.00900
H409        H  0.73864181  0.46542763  0.69374312     0.14700
H410        H  0.69805200  0.45639053  0.73554748     0.14700
N411        N  0.26357089  0.26279291  0.97914630    -0.01600
C412        C  0.23367965  0.26620863  0.97930827     0.01000
C413        C  0.21945359  0.23965335  0.97303789    -0.21900
C414        C  0.24136387  0.21891627  0.96873765    -0.22100
C415        C  0.26817514  0.23359343  0.97258843     0.00900
H416        H  0.19570353  0.23577332  0.97211528     0.14700
H417        H  0.23812746  0.19538614  0.96430894     0.14700
O418        O  0.49632858  0.44506426  0.08128062    -0.78200
O419        O  0.49756535  0.44506267  0.91128907    -0.79800
O420        O  0.44836026  0.41304418  0.99844720    -0.76800
O421        O  0.54643753  0.41117642  0.99528160    -0.75200
O422        O  0.58241135  0.44701341  0.99496650    -0.77000
O423        O  0.41281316  0.44929305  0.00032658    -0.77900
O424        O  0.49731664  0.41057254  0.94863600    -0.79200
O425        O  0.49695640  0.41061229  0.04373982    -0.79500
Eu426      Eu  0.49768522  0.43648508  0.99651716     2.39200
O427        O  0.52753461  0.46595534  0.96563328    -0.87000
O428        O  0.46788347  0.46666668  0.02746695    -0.90700
C429        C  0.49620038  0.41775592  0.07151305     1.04000
C430        C  0.49751250  0.41778644  0.92082735     1.03900
C431        C  0.42103480  0.42168164  0.99985599     1.03800
C432        C  0.57397273  0.41951695  0.99470058     1.01700
H433        H  0.45445475  0.45353577  0.95473531     0.31400
O434        O  0.46730457  0.46639519  0.96647873    -0.99400
H435        H  0.54077597  0.45293248  0.03912519     0.31400
O436        O  0.52838923  0.46583023  0.02710027    -1.02000
O437        O  0.49785229  0.54511638  0.91108693    -0.79200
O438        O  0.50448289  0.54575243  0.08148422    -0.78700
O439        O  0.41205823  0.49478194  0.94993544    -0.77200
O440        O  0.58167163  0.49278748  0.94680515    -0.80500
O441        O  0.58219067  0.49529565  0.04476677    -0.78400
O442        O  0.41464160  0.50065862  0.04548032    -0.77000
O443        O  0.45249699  0.58326256  0.99917285    -0.78500
O444        O  0.54940574  0.58049205  0.99477040    -0.80500
O445        O  0.41571576  0.54820114  0.99841434    -0.77200
O446        O  0.58484488  0.54430926  0.99486879    -0.79900
O447        O  0.44655216  0.49294713  0.91237832    -0.75600
O448        O  0.44893271  0.50064235  0.08296743    -0.75600
O449        O  0.54800668  0.49419457  0.08243908    -0.75300
O450        O  0.54647383  0.49239884  0.91008216    -0.78800
O451        O  0.49921083  0.58057893  0.94795324    -0.78200
O452        O  0.50484113  0.58084945  0.04446615    -0.76500
Eu453      Eu  0.49721063  0.49542503  0.93477717     2.39800
Eu454      Eu  0.49858954  0.49588272  0.05845471     2.39600
Eu455      Eu  0.43861919  0.49784482  0.99721990     2.38400
Eu456      Eu  0.55819294  0.49583547  0.99588330     2.39900
Eu457      Eu  0.49994890  0.55620606  0.99626906     2.39800
O458        O  0.52888441  0.52564148  0.02708909    -0.91000
O459        O  0.46842794  0.52713422  0.96563637    -0.89800
C460        C  0.49877263  0.57247351  0.92036732     1.04200
C461        C  0.50639111  0.57295427  0.07204492     1.02900
C462        C  0.41941002  0.49253857  0.92221931     1.02300
C463        C  0.57380925  0.49150617  0.91915091     1.04300
C464        C  0.57507720  0.49449092  0.07263889     1.03300
C465        C  0.42179699  0.50206556  0.07321085     1.02100
C466        C  0.42481426  0.57560549  0.99977771     1.02200
C467        C  0.57687700  0.57202356  0.99444252     1.04800
H468        H  0.45801400  0.54032884  0.04007492     0.32100
O469        O  0.46970959  0.52710613  0.02761116    -1.03100
H470        H  0.54121896  0.53769280  0.95229585     0.34200
O471        O  0.52853933  0.52557732  0.96489821    -1.05700
N472        N  0.73602245  0.73337933  0.99459525    -0.01600
C473        C  0.73050930  0.76295700  0.99828746     0.01000
C474        C  0.75636455  0.77943870  0.99622005    -0.21900
C475        C  0.77883584  0.75953411  0.99108244    -0.22100
C476        C  0.76595672  0.73150875  0.99021084     0.00900
H477        H  0.75847455  0.80346291  0.99755667     0.14700
H478        H  0.80221414  0.76485329  0.98872809     0.14700
N479        N  0.26421285  0.73240275  0.01553656    -0.01600
C480        C  0.26684166  0.76240958  0.01352285     0.01000
C481        C  0.24001976  0.77617508  0.01947443    -0.21900
C482        C  0.21997698  0.75383314  0.02522659    -0.22100
C483        C  0.23533656  0.72731363  0.02249852     0.00900
H484        H  0.23543243  0.79985972  0.01898310     0.14700
H485        H  0.19637984  0.75651294  0.02917875     0.14700
N486        N  0.73429403  0.26252543  0.99555567    -0.01600
C487        C  0.76375996  0.26610282  0.00110011     0.01000
C488        C  0.77812489  0.23890031  0.00063225    -0.21900
C489        C  0.75686171  0.21775753  0.99454416    -0.22100
C490        C  0.73024851  0.23278044  0.99160263     0.00900
H491        H  0.80168723  0.23498966  0.00357972     0.14700
H492        H  0.76029798  0.19391954  0.99294833     0.14700
C493        C  0.61280726  0.34383588  0.99078970     0.14600
C494        C  0.64288651  0.35207512  0.99305494     0.01500
C495        C  0.65029569  0.38241201  0.99506905     0.16500
C496        C  0.62808670  0.40420433  0.99538116     0.25900
C497        C  0.59766480  0.39615149  0.99375386    -0.40400
C498        C  0.59041548  0.36555381  0.99112304     0.33000
C499        C  0.66661824  0.32910082  0.99353869     0.01600
F500        F  0.67924929  0.39101707  0.99631389    -0.12700
F501        F  0.56169533  0.35642793  0.98874576    -0.13300
C502        C  0.67084684  0.30996821  0.96897586     0.16500
C503        C  0.69328927  0.28833756  0.96950573     0.25900
C504        C  0.71181023  0.28541543  0.99462180    -0.40400
C505        C  0.70778807  0.30475797  0.01904379     0.32900
C506        C  0.68537788  0.32640622  0.01852661     0.14600
F507        F  0.65359630  0.31266858  0.94424612    -0.12700
F508        F  0.72503216  0.30205543  0.04375402    -0.13200
F509        F  0.69746052  0.27067201  0.94521226    -0.15500
F510        F  0.68152576  0.34434528  0.04270840    -0.14100
F511        F  0.60505904  0.31461113  0.98875646    -0.14100
F512        F  0.63667349  0.43320629  0.99729790    -0.15500
C513        C  0.35081259  0.61534932  0.01316153     0.14600
C514        C  0.35843526  0.64549970  0.00925657     0.01500
C515        C  0.38818888  0.65278694  0.00279929     0.16500
C516        C  0.40975374  0.63032287  0.99977410     0.25900
C517        C  0.40200193  0.59984403  0.00290036    -0.40400
C518        C  0.37216368  0.59285765  0.00995465     0.33000
C519        C  0.33502737  0.66898950  0.01128980     0.01600
F520        F  0.39650862  0.68177533  0.99987193    -0.12700
F521        F  0.36341195  0.56418302  0.01411714    -0.13300
C522        C  0.31718138  0.67152238  0.03702856     0.16500
C523        C  0.29369145  0.69198080  0.03807640     0.25900
C524        C  0.28772153  0.71058569  0.01361006    -0.40400
C525        C  0.30570668  0.70842764  0.98801659     0.32900
C526        C  0.32920386  0.68787871  0.98687873     0.14600
F527        F  0.32277277  0.65441978  0.06136417    -0.12700
F528        F  0.29994594  0.72564262  0.96382721    -0.13200
F529        F  0.27711617  0.69420464  0.06332501    -0.15500
F530        F  0.34571971  0.68580287  0.96156918    -0.14100
F531        F  0.32233451  0.60751652  0.01957588    -0.14100
F532        F  0.43817393  0.63862065  0.99366465    -0.15500
C533        C  0.65315256  0.61073015  0.98920269     0.14600
C534        C  0.64560195  0.64107167  0.99173920     0.01500
C535        C  0.61538449  0.64860115  0.99468669     0.16500
C536        C  0.59326986  0.62641431  0.99545851     0.25900
C537        C  0.60068167  0.59578984  0.99337419    -0.40400
C538        C  0.63111797  0.58839565  0.99012242     0.33000
C539        C  0.66921819  0.66475809  0.99235037     0.01600
F540        F  0.60714464  0.67767095  0.99652722    -0.12700
F541        F  0.63983961  0.55950468  0.98788726    -0.13300
C542        C  0.68942634  0.66816714  0.96848983     0.16500
C543        C  0.71171532  0.69025306  0.96947233     0.25900
C544        C  0.71414981  0.70956216  0.99418676    -0.40400
C545        C  0.69395996  0.70618472  0.01797362     0.32900
C546        C  0.67181810  0.68405847  0.01710129     0.14600
F547        F  0.68702080  0.65067319  0.94380658    -0.12700
F548        F  0.69607347  0.72401446  0.04241665    -0.13200
F549        F  0.73028436  0.69351327  0.94579739    -0.15500
F550        F  0.65317045  0.68112819  0.04077928    -0.14100
F551        F  0.68210790  0.60259470  0.98657654    -0.14100
F552        F  0.56454423  0.63520471  0.99848248    -0.15500
C553        C  0.32310426  0.31920133  0.96286983     0.14600
C554        C  0.32833631  0.33153005  0.99140107     0.01500
C555        C  0.31115323  0.32141365  0.01566609     0.16500
C556        C  0.28961281  0.29910376  0.01152335     0.25900
C557        C  0.28548478  0.28592359  0.98333670    -0.40400
C558        C  0.30209877  0.29638601  0.95897523     0.33000
C559        C  0.35229339  0.35417990  0.99570379     0.01600
F560        F  0.31580267  0.33249502  0.04353181    -0.12700
F561        F  0.29741339  0.28491408  0.93128559    -0.13300
C562        C  0.34640165  0.38208299  0.00895161     0.16500
C563        C  0.36885075  0.40379144  0.01117030     0.25900
C564        C  0.39763301  0.39810330  0.99998080    -0.40400
C565        C  0.40368837  0.36965641  0.98789103     0.32900
C566        C  0.38134696  0.34803145  0.98589341     0.14600
F567        F  0.31868277  0.38869941  0.01898000    -0.12700
F568        F  0.43107292  0.36285263  0.97704943    -0.13200
F569        F  0.36238419  0.43030184  0.02439077    -0.15500
F570        F  0.38816856  0.32089923  0.97423071    -0.14100
F571        F  0.33811731  0.32956807  0.93867824    -0.14100
F572        F  0.27313914  0.28985223  0.03514593    -0.15500
C573        C  0.67466920  0.44896065  0.82112080     0.14600
C574        C  0.66977510  0.47719688  0.83370857     0.01500
C575        C  0.68963804  0.50059358  0.82742552     0.16500
C576        C  0.71350040  0.49609012  0.80776373     0.25900
C577        C  0.71759834  0.46813640  0.79408910    -0.40400
C578        C  0.69844867  0.44445417  0.80152869     0.33000
C579        C  0.64503890  0.48166901  0.85492985     0.01600
F580        F  0.68508969  0.52808050  0.83936553    -0.12700
F581        F  0.70196250  0.41730143  0.78848656    -0.13300
C582        C  0.65090187  0.48072234  0.88554026     0.16500
C583        C  0.62792974  0.48397451  0.90622742     0.25900
C584        C  0.59822495  0.48846938  0.89668859    -0.40400
C585        C  0.59250925  0.48960956  0.86566094     0.32900
C586        C  0.61575705  0.48614679  0.84499988     0.14600
F587        F  0.67908096  0.47617920  0.89542299    -0.12700
F588        F  0.56455103  0.49415809  0.85517921    -0.13200
F589        F  0.63507682  0.48229176  0.93564132    -0.15500
F590        F  0.60972156  0.48730473  0.81530762    -0.14100
F591        F  0.65596364  0.42596510  0.82726700    -0.14100
F592        F  0.73109498  0.51956071  0.80028967    -0.15500
C593        C  0.30042978  0.50365048  0.83761527     0.14600
C594        C  0.32174485  0.48084328  0.83909209     0.01500
C595        C  0.32126992  0.45775867  0.81792391     0.16500
C596        C  0.30108573  0.45859174  0.79425071     0.25900
C597        C  0.28088935  0.48234318  0.79167542    -0.40400
C598        C  0.27992060  0.50430662  0.81410174     0.33000
C599        C  0.34669589  0.48307755  0.86031237     0.01600
F600        F  0.34154276  0.43539889  0.81923926    -0.12700
F601        F  0.26110334  0.52781924  0.81177707    -0.13300
C602        C  0.34411816  0.47184486  0.88933534     0.16500
C603        C  0.36785315  0.47464369  0.90938314     0.25900
C604        C  0.39466633  0.48870617  0.90056976    -0.40400
C605        C  0.39726321  0.49922660  0.87110630     0.32900
C606        C  0.37341485  0.49651741  0.85122301     0.14600
F607        F  0.31867790  0.45803725  0.89814401    -0.12700
F608        F  0.42255754  0.51288499  0.86173957    -0.13200
F609        F  0.36473624  0.46305376  0.93722080    -0.15500
F610        F  0.37623146  0.50729723  0.82304737    -0.14100
F611        F  0.30089975  0.52635663  0.85773915    -0.14100
F612        F  0.30233010  0.43709507  0.77284915    -0.15500
C613        C  0.30075227  0.49049374  0.15612372     0.14600
C614        C  0.32178386  0.51366872  0.15399502     0.01500
C615        C  0.31938880  0.53858169  0.17279652     0.16500
C616        C  0.29809460  0.53905964  0.19540586     0.25900
C617        C  0.27892043  0.51464765  0.19946128    -0.40400
C618        C  0.27939675  0.49093062  0.17889081     0.33000
C619        C  0.34739079  0.51113820  0.13359921     0.01600
F620        F  0.33861020  0.56181215  0.17006321    -0.12700
F621        F  0.26122166  0.46698860  0.18253367    -0.13300
C622        C  0.34297663  0.51174123  0.10277052     0.16500
C623        C  0.36710814  0.50938199  0.08338441     0.25900
C624        C  0.39649096  0.50584920  0.09448556    -0.40400
C625        C  0.40079633  0.50607446  0.12568714     0.32900
C626        C  0.37640035  0.50859588  0.14501945     0.14600
F627        F  0.31519186  0.51513542  0.09138410    -0.12700
F628        F  0.42845369  0.50389317  0.13762165    -0.13200
F629        F  0.36133857  0.51091576  0.05365682    -0.15500
F630        F  0.38099858  0.50815315  0.17499911    -0.14100
F631        F  0.30231895  0.46650836  0.13759825    -0.14100
F632        F  0.29740172  0.56251224  0.21465247    -0.15500
C633        C  0.65364027  0.49540841  0.10390499     0.14600
C634        C  0.64852517  0.49930166  0.13446471     0.01500
C635        C  0.61914707  0.49959032  0.14524922     0.16500
C636        C  0.59512371  0.49689432  0.12548452     0.25900
C637        C  0.60013670  0.49441623  0.09442889    -0.40400
C638        C  0.62987471  0.49300349  0.08408182     0.33000
C639        C  0.67396700  0.50338234  0.15494472     0.01600
F640        F  0.61375162  0.50240225  0.17497977    -0.12700
F641        F  0.63633864  0.48961723  0.05463582    -0.13300
C642        C  0.67698114  0.52997564  0.17129304     0.16500
C643        C  0.69965861  0.53295315  0.19237951     0.25900
C644        C  0.71951871  0.50936967  0.19748857    -0.40400
C645        C  0.71797284  0.48370030  0.17953771     0.32900
C646        C  0.69524374  0.48069140  0.15838442     0.14600
F647        F  0.65736713  0.55264581  0.16750158    -0.12700
F648        F  0.73667052  0.46048049  0.18440175    -0.13200
F649        F  0.70119463  0.55815671  0.20921674    -0.15500
F650        F  0.69278271  0.45484328  0.14269025    -0.14100
F651        F  0.68184659  0.49480717  0.09306746    -0.14100
F652        F  0.56711331  0.49705657  0.13685027    -0.15500
C653        C  0.84743480  0.60793784  0.98859389     0.14600
C654        C  0.85334813  0.63834841  0.99247847     0.01500
C655        C  0.88270102  0.64778721  0.99771963     0.16500
C656        C  0.90595046  0.62704227  0.99898324     0.25900
C657        C  0.90027019  0.59634337  0.99479471    -0.40400
C658        C  0.87050867  0.58713100  0.98964644     0.33000
C659        C  0.82890492  0.66029006  0.99052342     0.01600
F660        F  0.88878089  0.67717646  0.00191959    -0.12700
F661        F  0.86347744  0.55799387  0.98507875    -0.13300
C662        C  0.80729247  0.66212775  0.01316488     0.16500
C663        C  0.78519742  0.68411978  0.01207875     0.25900
C664        C  0.78422318  0.70423792  0.98811721    -0.40400
C665        C  0.80544640  0.70182149  0.96510484     0.32900
C666        C  0.82756463  0.67999779  0.96628315     0.14600
F667        F  0.80865885  0.64370406  0.03713422    -0.12700
F668        F  0.80550568  0.72152705  0.94210945    -0.13200
F669        F  0.76642704  0.68740136  0.03561245    -0.15500
F670        F  0.84815767  0.67852263  0.94412523    -0.14100
F671        F  0.81925536  0.59842595  0.98310123    -0.14100
F672        F  0.93389795  0.63711672  0.00457989    -0.15500
C673        C  0.84410532  0.39075300  0.00131071     0.14600
C674        C  0.84903487  0.36027003  0.99716624     0.01500
C675        C  0.87780957  0.35005321  0.99064635     0.16500
C676        C  0.90168055  0.37012939  0.98905286     0.25900
C677        C  0.89712331  0.40085578  0.99418613    -0.40400
C678        C  0.86776834  0.41090384  0.99983968     0.33000
C679        C  0.82410505  0.33904865  0.99980199     0.01600
F680        F  0.88270256  0.32057985  0.98565873    -0.12700
F681        F  0.86171514  0.44021836  0.00448095    -0.13300
C682        C  0.80461600  0.33453808  0.97571328     0.16500
C683        C  0.78258111  0.31250329  0.97728018     0.25900
C684        C  0.78019536  0.29450491  0.00278342    -0.40400
C685        C  0.79869695  0.30013514  0.02747159     0.32900
C686        C  0.82036684  0.32248584  0.02608625     0.14600
F687        F  0.80808607  0.35031758  0.95010706    -0.12700
F688        F  0.79662988  0.28300691  0.05236627    -0.13200
F689        F  0.76530778  0.30704364  0.95300155    -0.15500
F690        F  0.83844376  0.32725754  0.04993070    -0.14100
F691        F  0.81630238  0.40096798  0.00724489    -0.14100
F692        F  0.92907683  0.35943567  0.98217087    -0.15500
C693        C  0.15466860  0.60349191  0.01834171     0.14600
C694        C  0.15261991  0.63253334  0.00727842     0.01500
C695        C  0.12643850  0.64183502  0.99297567     0.16500
C696        C  0.10231418  0.62225580  0.99003021     0.25900
C697        C  0.10430450  0.59293867  0.00098405    -0.40400
C698        C  0.13084774  0.58380647  0.01514065     0.33000
C699        C  0.17730619  0.65360475  0.01191946     0.01600
F700        F  0.12413222  0.67006220  0.98232376    -0.12700
F701        F  0.13361816  0.55597231  0.02660064    -0.13300
C702        C  0.19438446  0.66345768  0.98761521     0.16500
C703        C  0.21575410  0.68576795  0.99170166     0.25900
C704        C  0.21987539  0.69860645  0.02004943    -0.40400
C705        C  0.20371841  0.68782437  0.04455290     0.32900
C706        C  0.18276962  0.66514948  0.04058285     0.14600
F707        F  0.18945199  0.65232418  0.95981105    -0.12700
F708        F  0.20710193  0.70046143  0.07194698    -0.13200
F709        F  0.23055604  0.69663004  0.96760620    -0.15500
F710        F  0.16650257  0.65572661  0.06432719    -0.14100
F711        F  0.17982269  0.59422869  0.03228852    -0.14100
F712        F  0.07729716  0.63183026  0.97608873    -0.15500
C713        C  0.15030740  0.38349260  0.01034655     0.14600
C714        C  0.14682666  0.35616043  0.99565302     0.01500
C715        C  0.11942776  0.34867306  0.98262858     0.16500
C716        C  0.09588157  0.36894461  0.98337167     0.25900
C717        C  0.09957763  0.39693967  0.99722193    -0.40400
C718        C  0.12689808  0.40378991  0.01115092     0.33000
C719        C  0.17217652  0.33584992  0.99297325     0.01600
F720        F  0.11569768  0.32187844  0.96888544    -0.12700
F721        F  0.13098236  0.43013775  0.02564554    -0.13300
C722        C  0.17958117  0.31694957  0.01669017     0.16500
C723        C  0.20201425  0.29581492  0.01306781     0.25900
C724        C  0.21730676  0.29361793  0.98582575    -0.40400
C725        C  0.21094795  0.31356920  0.96263175     0.32900
C726        C  0.18833471  0.33459290  0.96617552     0.14600
F727        F  0.16389665  0.31781303  0.04260347    -0.12700
F728        F  0.22503284  0.31115264  0.93590060    -0.13200
F729        F  0.20750127  0.27610360  0.03536248    -0.15500
F730        F  0.18119041  0.35279314  0.94307453    -0.14100
F731        F  0.17662445  0.39070755  0.02339402    -0.14100
F732        F  0.06998816  0.36164264  0.96956866    -0.15500
C733        C  0.88557974  0.48789611  0.84361898     0.14600
C734        C  0.85547425  0.48887525  0.85192232     0.01500
C735        C  0.84817122  0.49416108  0.88195611     0.16500
C736        C  0.87053829  0.49796764  0.90345095     0.25900
C737        C  0.90093547  0.49580466  0.89551547    -0.40400
C738        C  0.90806596  0.49122267  0.86507271     0.33000
C739        C  0.83171094  0.48496773  0.82912008     0.01600
F740        F  0.81923919  0.49605384  0.89044381    -0.12700
F741        F  0.93678835  0.48957898  0.85585331    -0.13300
C742        C  0.81259219  0.46011790  0.82993561     0.16500
C743        C  0.79049714  0.45635948  0.80808103     0.25900
C744        C  0.78674564  0.47764305  0.78527809    -0.40400
C745        C  0.80574286  0.50264827  0.78477222     0.32900
C746        C  0.82814020  0.50611242  0.80630861     0.14600
F747        F  0.81583550  0.43911014  0.85148705    -0.12700
F748        F  0.80218390  0.52416003  0.76386040    -0.13200
F749        F  0.77337720  0.43139747  0.80860156    -0.15500
F750        F  0.84610254  0.53046654  0.80524433    -0.14100
F751        F  0.89324010  0.48308119  0.81466599    -0.14100
F752        F  0.86220456  0.50394922  0.93200540    -0.15500
C753        C  0.11614801  0.50119249  0.84283878     0.14600
C754        C  0.14572558  0.49428418  0.85023670     0.01500
C755        C  0.15266584  0.48772271  0.88012249     0.16500
C756        C  0.13046699  0.48768059  0.90209160     0.25900
C757        C  0.10079367  0.49508877  0.89489360    -0.40400
C758        C  0.09401020  0.50188962  0.86485799     0.33000
C759        C  0.16917226  0.49366267  0.82671692     0.01600
F760        F  0.18113858  0.48174033  0.88820899    -0.12700
F761        F  0.06597711  0.50947158  0.85659437    -0.13300
C762        C  0.17382607  0.51853615  0.80812989     0.16500
C763        C  0.19547141  0.51772804  0.78564310     0.25900
C764        C  0.21306049  0.49219498  0.78146998    -0.40400
C765        C  0.20845452  0.46732909  0.79990895     0.32900
C766        C  0.18674592  0.46803444  0.82236338     0.14600
F767        F  0.15786407  0.54390314  0.81220704    -0.12700
F768        F  0.22451678  0.44209125  0.79559265    -0.13200
F769        F  0.19994574  0.54222858  0.76846967    -0.15500
F770        F  0.18243230  0.44341294  0.83942802    -0.14100
F771        F  0.10852234  0.50681287  0.81405100    -0.14100
F772        F  0.13813812  0.47990884  0.93035073    -0.15500
C773        C  0.17134316  0.47671809  0.18659110     0.14600
C774        C  0.16741255  0.50027989  0.16620061     0.01500
C775        C  0.18553914  0.52580306  0.16899915     0.16500
C776        C  0.20726050  0.52756601  0.19139212     0.25900
C777        C  0.21147042  0.50383653  0.21141667    -0.40400
C778        C  0.19323656  0.47844351  0.20885698     0.33000
C779        C  0.14466331  0.49824302  0.14194693     0.01600
F780        F  0.18191233  0.54929568  0.15028210    -0.12700
F781        F  0.19753484  0.45472414  0.22709096    -0.13300
C782        C  0.11470185  0.49222460  0.14867228     0.16500
C783        C  0.09322011  0.49102036  0.12600146     0.25900
C784        C  0.10106480  0.49589437  0.09580743    -0.40400
C785        C  0.13131775  0.50136360  0.08912974     0.32900
C786        C  0.15273993  0.50255627  0.11189119     0.14600
F787        F  0.10597890  0.48819589  0.17742331    -0.12700
F788        F  0.14039876  0.50586388  0.06058986    -0.13200
F789        F  0.06467674  0.48498329  0.13386111    -0.15500
F790        F  0.18159676  0.50760474  0.10444471    -0.14100
F791        F  0.15463964  0.45154950  0.18434918    -0.14100
F792        F  0.22400826  0.55267665  0.19378695    -0.15500
C793        C  0.88758298  0.49633943  0.14905138     0.14600
C794        C  0.85749379  0.50051919  0.14160049     0.01500
C795        C  0.84969064  0.50270736  0.11127139     0.16500
C796        C  0.87144956  0.50124838  0.08889082     0.25900
C797        C  0.90179570  0.49750532  0.09622572    -0.40400
C798        C  0.90940068  0.49448696  0.12672709     0.33000
C799        C  0.83413029  0.50188321  0.16528038     0.01600
F800        F  0.82075956  0.50580573  0.10318201    -0.12700
F801        F  0.93796154  0.48955692  0.13521380    -0.13300
C802        C  0.81416495  0.52602794  0.16672570     0.16500
C803        C  0.79140171  0.52658599  0.18816811     0.25900
C804        C  0.78821013  0.50314142  0.20874243    -0.40400
C805        C  0.80844544  0.47926737  0.20761968     0.32900
C806        C  0.83115635  0.47864814  0.18617051     0.14600
F807        F  0.81706207  0.54939320  0.14769999    -0.12700
F808        F  0.80560905  0.45596682  0.22667902    -0.13200
F809        F  0.77287623  0.55041458  0.18932564    -0.15500
F810        F  0.84973214  0.45482506  0.18526384    -0.14100
F811        F  0.89602583  0.49460963  0.17811556    -0.14100
F812        F  0.86253801  0.50357368  0.06001455    -0.15500
C813        C  0.45904224  0.31441053  0.82378488     0.14600
C814        C  0.48684569  0.31892609  0.83740237     0.01500
C815        C  0.51059995  0.29991566  0.83005689     0.16500
C816        C  0.50709994  0.27795143  0.80801108     0.25900
C817        C  0.47981290  0.27472835  0.79306553    -0.40400
C818        C  0.45555177  0.29245926  0.80178537     0.33000
C819        C  0.49128837  0.34425026  0.85828566     0.01600
F820        F  0.53774889  0.30405508  0.84268447    -0.12700
F821        F  0.42889180  0.28952441  0.78782158    -0.13300
C822        C  0.49813802  0.33901440  0.88831631     0.16500
C823        C  0.50112460  0.36283709  0.90834211     0.25900
C824        C  0.49701945  0.39267086  0.89876832    -0.40400
C825        C  0.49122281  0.39776552  0.86822681     0.32900
C826        C  0.48838016  0.37378390  0.84826741     0.14600
F827        F  0.50112846  0.31065573  0.89846248    -0.12700
F828        F  0.48763937  0.42586222  0.85761366    -0.13200
F829        F  0.50785524  0.35640348  0.93718430    -0.15500
F830        F  0.48274687  0.37939183  0.81902081    -0.14100
F831        F  0.43557456  0.33200928  0.83107775    -0.14100
F832        F  0.53112326  0.26185222  0.79924323    -0.15500
C833        C  0.54655140  0.67520881  0.82941044     0.14600
C834        C  0.51711971  0.66952947  0.83840355     0.01500
C835        C  0.49383925  0.68651256  0.82627997     0.16500
C836        C  0.49982020  0.70789082  0.80442288     0.25900
C837        C  0.52905196  0.71223073  0.79424826    -0.40400
C838        C  0.55241500  0.69611824  0.80714847     0.33000
C839        C  0.51068306  0.64445758  0.85872599     0.01600
F840        F  0.46516740  0.68096409  0.83407986    -0.12700
F841        F  0.58076040  0.69989966  0.79737245    -0.13300
C842        C  0.49534895  0.64919691  0.88561685     0.16500
C843        C  0.49017576  0.62544949  0.90506650     0.25900
C844        C  0.50071444  0.59661673  0.89811681    -0.40400
C845        C  0.51559420  0.59188659  0.87090341     0.32900
C846        C  0.52024842  0.61554242  0.85127133     0.14600
F847        F  0.48627564  0.67700132  0.89351256    -0.12700
F848        F  0.52699703  0.56472443  0.86390633    -0.13200
F849        F  0.47516696  0.63078501  0.93087639    -0.15500
F850        F  0.53443788  0.61026641  0.82500505    -0.14100
F851        F  0.56949427  0.65974515  0.84152728    -0.14100
F852        F  0.47681980  0.72249146  0.79138641    -0.15500
C853        C  0.50802925  0.64961401  0.10780849     0.14600
C854        C  0.52374400  0.64411979  0.13428755     0.01500
C855        C  0.53336825  0.61494154  0.14052755     0.16500
C856        C  0.52732210  0.59164731  0.12056246     0.25900
C857        C  0.51139166  0.59710379  0.09408138    -0.40400
C858        C  0.50188066  0.62641317  0.08790413     0.33000
C859        C  0.53022806  0.66900153  0.15511234     0.01600
F860        F  0.54859772  0.60895708  0.16599635    -0.12700
F861        F  0.48661870  0.63276695  0.06253173    -0.13300
C862        C  0.50695199  0.68650410  0.16669151     0.16500
C863        C  0.51299162  0.70974025  0.18670689     0.25900
C864        C  0.54234161  0.71546130  0.19584508    -0.40400
C865        C  0.56563957  0.69836857  0.18381536     0.32900
C866        C  0.55967190  0.67546031  0.16345690     0.14600
F867        F  0.47821865  0.68001074  0.15988420    -0.12700
F868        F  0.59413356  0.70325390  0.19263764    -0.13200
F869        F  0.48995189  0.72497356  0.19900700    -0.15500
F870        F  0.58262075  0.65929074  0.15221618    -0.14100
F871        F  0.49924516  0.67771390  0.10084447    -0.14100
F872        F  0.53806197  0.56402353  0.12661508    -0.15500
C873        C  0.48848628  0.37331892  0.14367764     0.14600
C874        C  0.48908497  0.34377516  0.13308423     0.01500
C875        C  0.49335758  0.33852126  0.10255614     0.16500
C876        C  0.49601883  0.36240713  0.08270023     0.25900
C877        C  0.49478696  0.39236749  0.09306832    -0.40400
C878        C  0.49149168  0.39736038  0.12398436     0.33000
C879        C  0.48438938  0.31862663  0.15398713     0.01600
F880        F  0.49414077  0.31016969  0.09180142    -0.12700
F881        F  0.49083872  0.42546150  0.13531603    -0.13300
C882        C  0.45743106  0.31629370  0.16963265     0.16500
C883        C  0.45403709  0.29509347  0.19219259     0.25900
C884        C  0.47747162  0.27568682  0.19940059    -0.40400
C885        C  0.50385264  0.27678590  0.18254386     0.32900
C886        C  0.50724455  0.29807720  0.15986358     0.14600
F887        F  0.43476048  0.33536690  0.16376181    -0.12700
F888        F  0.52727060  0.25918233  0.18981844    -0.13200
F889        F  0.42833436  0.29449381  0.20812132    -0.15500
F890        F  0.53355650  0.30000747  0.14509163    -0.14100
F891        F  0.48503145  0.37888016  0.17329936    -0.14100
F892        F  0.49951696  0.35585571  0.05325758    -0.15500
C893        C  0.60439313  0.15374870  0.99401325     0.14600
C894        C  0.63484674  0.14866947  0.99009817     0.01500
C895        C  0.64520776  0.11915498  0.98794511     0.16500
C896        C  0.62536583  0.09503997  0.98932321     0.25900
C897        C  0.59459620  0.09994437  0.99299422    -0.40400
C898        C  0.58448705  0.12982093  0.99550794     0.33000
C899        C  0.65597150  0.17404342  0.98838161     0.01600
F900        F  0.67474366  0.11367062  0.98484448    -0.12700
F901        F  0.55523337  0.13626120  0.99938392    -0.13300
C902        C  0.65918846  0.19398040  0.01253948     0.16500
C903        C  0.68182812  0.21549314  0.01232864     0.25900
C904        C  0.70167558  0.21701542  0.98818393    -0.40400
C905        C  0.69733897  0.19835391  0.96332316     0.32900
C906        C  0.67440835  0.17728762  0.96324758     0.14600
F907        F  0.64186199  0.19118040  0.03722378    -0.12700
F908        F  0.71635083  0.19952262  0.93977345    -0.13200
F909        F  0.68606637  0.23294141  0.03680804    -0.15500
F910        F  0.67089523  0.15921632  0.93910647    -0.14100
F911        F  0.59377483  0.18204040  0.99582026    -0.14100
F912        F  0.63641983  0.06699485  0.98680033    -0.15500
C913        C  0.34116106  0.80041873  0.01916637     0.14600
C914        C  0.33908080  0.82063107  0.99527981     0.01500
C915        C  0.31524558  0.81850279  0.97520556     0.16500
C916        C  0.29252090  0.79799178  0.98025091     0.25900
C917        C  0.29365780  0.77903001  0.00511606    -0.40400
C918        C  0.31853724  0.77954310  0.02397985     0.33000
C919        C  0.36013581  0.84566710  0.99286718     0.01600
F920        F  0.31343236  0.83718252  0.95144976    -0.12700
F921        F  0.31975207  0.76156566  0.04830421    -0.13300
C922        C  0.39036967  0.84034651  0.98800929     0.16500
C923        C  0.41040677  0.86410168  0.98701192     0.25900
C924        C  0.40052518  0.89382547  0.99127879    -0.40400
C925        C  0.36986826  0.89898301  0.99525704     0.32900
C926        C  0.34992123  0.87508166  0.99606731     0.14600
F927        F  0.40046554  0.81207124  0.98405733    -0.12700
F928        F  0.35909675  0.92700375  0.99905392    -0.13200
F929        F  0.43947284  0.85773379  0.98177503    -0.15500
F930        F  0.32060836  0.88057746  0.00086388    -0.14100
F931        F  0.36395552  0.80234848  0.03897249    -0.14100
F932        F  0.26870602  0.79745336  0.96159822    -0.15500
C933        C  0.60545406  0.84122156  0.98757711     0.14600
C934        C  0.63497536  0.84585664  0.99638689     0.01500
C935        C  0.64467677  0.87494755  0.00315852     0.16500
C936        C  0.62498010  0.89904188  0.00165195     0.25900
C937        C  0.59505578  0.89444206  0.99349862    -0.40400
C938        C  0.58568556  0.86513646  0.98611218     0.33000
C939        C  0.65587385  0.82047611  0.99814750     0.01600
F940        F  0.67340443  0.88004893  0.01104095    -0.12700
F941        F  0.55732044  0.85934687  0.97738073    -0.13300
C942        C  0.66287313  0.80381444  0.97242064     0.16500
C943        C  0.68541626  0.78237151  0.97329551     0.25900
C944        C  0.70126292  0.77747846  0.99980259    -0.40400
C945        C  0.69321212  0.79296180  0.02587709     0.32900
C946        C  0.67040197  0.81406251  0.02515124     0.14600
F947        F  0.64949098  0.80992583  0.94595764    -0.12700
F948        F  0.70875291  0.78897870  0.05155868    -0.13200
F949        F  0.69373877  0.76847508  0.94764059    -0.15500
F950        F  0.66334010  0.82920077  0.05049102    -0.14100
F951        F  0.59556259  0.81333343  0.98093497    -0.14100
F952        F  0.63516670  0.92668508  0.00878389    -0.15500
C953        C  0.39008536  0.15198321  0.98602602     0.14600
C954        C  0.35967910  0.14641681  0.98279884     0.01500
C955        C  0.34930847  0.11682762  0.98247534     0.16500
C956        C  0.36923744  0.09299219  0.98537169     0.25900
C957        C  0.40003814  0.09838783  0.98847574    -0.40400
C958        C  0.41008468  0.12841354  0.98881580     0.33000
C959        C  0.33892911  0.17163588  0.97920640     0.01600
F960        F  0.31979615  0.11105176  0.97949324    -0.12700
F961        F  0.43936717  0.13536542  0.99160531    -0.13300
C962        C  0.32462814  0.17615219  0.95176969     0.16500
C963        C  0.30361043  0.19881558  0.94878522     0.25900
C964        C  0.29656438  0.21729793  0.97317111    -0.40400
C965        C  0.31203896  0.21384582  0.00020446     0.32900
C966        C  0.33317971  0.19112805  0.00317719     0.14600
F967        F  0.33036901  0.15797832  0.92816016    -0.12700
F968        F  0.30476113  0.23054585  0.02445769    -0.13200
F969        F  0.28866974  0.20160048  0.92258354    -0.15500
F970        F  0.34668892  0.18693131  0.02995908    -0.14100
F971        F  0.40052894  0.18043282  0.98580331    -0.14100
F972        F  0.35827206  0.06475561  0.98488183    -0.15500
C973        C  0.49120393  0.14558048  0.87626574     0.14600
C974        C  0.49428494  0.13717545  0.84620246     0.01500
C975        C  0.49741039  0.10687548  0.83901769     0.16500
C976        C  0.49788815  0.08529600  0.86161417     0.25900
C977        C  0.49527629  0.09364378  0.89206964    -0.40400
C978        C  0.49152499  0.12417020  0.89892945     0.33000
C979        C  0.49263458  0.16015550  0.82250119     0.01600
F980        F  0.49918534  0.09808252  0.81001501    -0.12700
F981        F  0.48767639  0.13352577  0.92753746    -0.13300
C982        C  0.51739253  0.16680492  0.80442071     0.16500
C983        C  0.51594842  0.19008690  0.78352463     0.25900
C984        C  0.48969859  0.20681017  0.78039611    -0.40400
C985        C  0.46487309  0.19959931  0.79799685     0.32900
C986        C  0.46631433  0.17652753  0.81884198     0.14600
F987        F  0.54310049  0.15128410  0.80757569    -0.12700
F988        F  0.43890335  0.21449447  0.79431657    -0.13200
F989        F  0.54029084  0.19683404  0.76690855    -0.15500
F990        F  0.44186239  0.16990776  0.83537386    -0.14100
F991        F  0.48783951  0.17476421  0.88369575    -0.14100
F992        F  0.50067250  0.05624356  0.85341450    -0.15500
C993        C  0.49973868  0.87772509  0.84292445     0.14600
C994        C  0.50421394  0.84802157  0.85176009     0.01500
C995        C  0.50556526  0.84142018  0.88235876     0.16500
C996        C  0.50325273  0.86408539  0.90378117     0.25900
C997        C  0.49958681  0.89418788  0.89514521    -0.40400
C998        C  0.49735582  0.90055730  0.86429132     0.33000
C999        C  0.50897548  0.82412309  0.82915380     0.01600
F1000       F  0.50926033  0.81283345  0.89157788    -0.12700
F1001       F  0.49309569  0.92888374  0.85455281    -0.13300
C1002       C  0.53565104  0.80779375  0.82912605     0.16500
C1003       C  0.54079109  0.78590276  0.80744384     0.25900
C1004       C  0.51945093  0.77989508  0.78530792    -0.40400
C1005       C  0.49248163  0.79565682  0.78563024     0.32900
C1006       C  0.48727918  0.81766079  0.80737720     0.14600
F1007       F  0.55712958  0.81363379  0.84965893    -0.12700
F1008       F  0.47099539  0.78923762  0.76532874    -0.13200
F1009       F  0.56707387  0.77106856  0.80747058    -0.15500
F1010       F  0.46089421  0.83232567  0.80750972    -0.14100
F1011       F  0.49869350  0.88480671  0.81346778    -0.14100
F1012       F  0.50511393  0.85631690  0.93301020    -0.15500
C1013       C  0.50011370  0.87997119  0.14732214     0.14600
C1014       C  0.50654496  0.85036599  0.13906976     0.01500
C1015       C  0.50884967  0.84346924  0.10849116     0.16500
C1016       C  0.50596151  0.86569669  0.08669869     0.25900
C1017       C  0.50026909  0.89568907  0.09478142    -0.40400
C1018       C  0.49703917  0.90234955  0.12553924     0.33000
C1019       C  0.51339497  0.82716203  0.16207974     0.01600
F1020       F  0.51428571  0.81500087  0.09963057    -0.12700
F1021       F  0.49133934  0.93062909  0.13479274    -0.13300
C1022       C  0.49287508  0.81938530  0.18464818     0.16500
C1023       C  0.50007772  0.79757246  0.20608584     0.25900
C1024       C  0.52794188  0.78333630  0.20542595    -0.40400
C1025       C  0.54826886  0.79109392  0.18288727     0.32900
C1026       C  0.54112094  0.81264813  0.16151162     0.14600
F1027       F  0.46569712  0.83248620  0.18559747    -0.12700
F1028       F  0.57560075  0.77832719  0.18216457    -0.13200
F1029       F  0.47966083  0.78985110  0.22702711    -0.15500
F1030       F  0.56174896  0.81996281  0.14060253    -0.14100
F1031       F  0.49796728  0.88753841  0.17662867    -0.14100
F1032       F  0.50964739  0.85769896  0.05765562    -0.15500
C1033       C  0.46598646  0.18025586  0.16758398     0.14600
C1034       C  0.49128297  0.16185874  0.16647296     0.01500
C1035       C  0.51365641  0.16581033  0.18816353     0.16500
C1036       C  0.51109185  0.18826655  0.20995880     0.25900
C1037       C  0.48609355  0.20709537  0.21051058    -0.40400
C1038       C  0.46347710  0.20265984  0.18929379     0.33000
C1039       C  0.49432269  0.13910458  0.14227341     0.01600
F1040       F  0.53835514  0.14844737  0.18776532    -0.12700
F1041       F  0.43853510  0.21963506  0.19010611    -0.13300
C1042       C  0.49344383  0.14776327  0.11212179     0.16500
C1043       C  0.49477405  0.12646967  0.08911468     0.25900
C1044       C  0.49701393  0.09573246  0.09566053    -0.40400
C1045       C  0.49853791  0.08727318  0.12612695     0.32900
C1046       C  0.49723557  0.10868510  0.14901803     0.14600
F1047       F  0.49142937  0.17708960  0.10491156    -0.12700
F1048       F  0.50100438  0.05818593  0.13410168    -0.13200
F1049       F  0.49350974  0.13616907  0.06044882    -0.15500
F1050       F  0.49795814  0.09952899  0.17790368    -0.14100
F1051       F  0.44338832  0.17613891  0.14788049    -0.14100
F1052       F  0.53341739  0.19220454  0.22997979    -0.15500
C1053       C  0.32933738  0.00647611  0.18725169     0.14600
C1054       C  0.33814699  0.98333338  0.16787219     0.01500
C1055       C  0.32669287  0.95446194  0.17229974     0.16500
C1056       C  0.30521319  0.94930157  0.19420692     0.25900
C1057       C  0.29569551  0.97259527  0.21287723    -0.40400
C1058       C  0.30849835  0.00102901  0.20984635     0.33000
C1059       C  0.35834206  0.98926105  0.14236491     0.01600
F1060       F  0.33564923  0.93140927  0.15474719    -0.12700
F1061       F  0.29875383  0.02414918  0.22685467    -0.13300
C1062       C  0.38619665  0.00267591  0.14702950     0.16500
C1063       C  0.40594907  0.00639486  0.12323746     0.25900
C1064       C  0.39850931  0.99609097  0.09433969    -0.40400
C1065       C  0.37014200  0.98369646  0.08951135     0.32900
C1066       C  0.35015880  0.98063975  0.11322882     0.14600
F1067       F  0.39480062  0.01116730  0.17486384    -0.12700
F1068       F  0.36211348  0.97331234  0.06214536    -0.13200
F1069       F  0.43253261  0.01981538  0.12866762    -0.15500
F1070       F  0.32282928  0.96888870  0.10776297    -0.14100
F1071       F  0.33930526  0.03476275  0.18300777    -0.14100
F1072       F  0.29249234  0.92187901  0.19619893    -0.15500
C1073       C  0.65618271  0.01813298  0.79846162     0.14600
C1074       C  0.66032199  0.99758165  0.82180118     0.01500
C1075       C  0.68604644  0.97997901  0.82234174     0.16500
C1076       C  0.70821787  0.98419508  0.80101043     0.25900
C1077       C  0.70502307  0.00606905  0.77879986    -0.40400
C1078       C  0.67850071  0.02241964  0.77706453     0.33000
C1079       C  0.63877349  0.99576317  0.84659518     0.01600
F1080       F  0.69009543  0.95939172  0.84416154    -0.12700
F1081       F  0.67520356  0.04411007  0.75624289    -0.13300
C1082       C  0.60914402  0.98796351  0.84098191     0.16500
C1083       C  0.58857088  0.98706456  0.86427062     0.25900
C1084       C  0.59722835  0.99420645  0.89381480    -0.40400
C1085       C  0.62725393  0.00145060  0.89941507     0.32900
C1086       C  0.64777832  0.00224441  0.87597808     0.14600
F1087       F  0.60015845  0.98093629  0.81286943    -0.12700
F1088       F  0.63675368  0.00854202  0.92734929    -0.13200
F1089       F  0.56018713  0.97896927  0.85769324    -0.15500
F1090       F  0.67635771  0.01019603  0.88184586    -0.14100
F1091       F  0.63143635  0.03541958  0.79759877    -0.14100
F1092       F  0.73352757  0.96781120  0.80279937    -0.15500
C1093       C  0.35188018  0.00766387  0.87153933     0.14600
C1094       C  0.36254011  0.00911048  0.84203567     0.01500
C1095       C  0.39299588  0.00541548  0.83663884     0.16500
C1096       C  0.41252334  0.00021866  0.86025787     0.25900
C1097       C  0.40214265  0.99973507  0.89016289    -0.40400
C1098       C  0.37142377  0.00322099  0.89537077     0.33000
C1099       C  0.34147735  0.01275568  0.81694092     0.01600
F1100       F  0.40396697  0.00719294  0.80841869    -0.12700
F1101       F  0.36006104  0.00228552  0.92345510    -0.13300
C1102       C  0.32095390  0.03632097  0.81712684     0.16500
C1103       C  0.29767789  0.03674637  0.79656812     0.25900
C1104       C  0.29479827  0.01391750  0.77515754    -0.40400
C1105       C  0.31656146  0.99152866  0.77354223     0.32900
C1106       C  0.33978335  0.99098500  0.79429451     0.14600
F1107       F  0.32261951  0.05815871  0.83815680    -0.12700
F1108       F  0.31377692  0.96850957  0.75400626    -0.13200
F1109       F  0.27684531  0.05855237  0.79867808    -0.15500
F1110       F  0.35909248  0.96774065  0.79383529    -0.14100
F1111       F  0.32231279  0.00998877  0.87727885    -0.14100
F1112       F  0.44163396  0.99571726  0.85351811    -0.15500
C1113       C  0.47355677  0.15252830  0.30095043     0.14600
C1114       C  0.49673167  0.15352314  0.32216633     0.01500
C1115       C  0.51770825  0.17676665  0.32069004     0.16500
C1116       C  0.51430081  0.19973030  0.29998761     0.25900
C1117       C  0.49039721  0.19946983  0.27980456    -0.40400
C1118       C  0.47058240  0.17526137  0.27972667     0.33000
C1119       C  0.49817020  0.13136468  0.34674561     0.01600
F1120       F  0.54113301  0.17761789  0.33981920    -0.12700
F1121       F  0.44716147  0.17473700  0.26060175    -0.13300
C1122       C  0.49796072  0.10070564  0.34046955     0.16500
C1123       C  0.49822670  0.07985828  0.36360715     0.25900
C1124       C  0.49942810  0.08916536  0.39382899    -0.40400
C1125       C  0.50016120  0.12006480  0.39999001     0.32900
C1126       C  0.49924024  0.14084173  0.37673338     0.14600
F1127       F  0.49789294  0.09082578  0.31176872    -0.12700
F1128       F  0.50148703  0.13043863  0.42849242    -0.13200
F1129       F  0.49723760  0.05050882  0.35608962    -0.15500
F1130       F  0.49870910  0.17035930  0.38362305    -0.14100
F1131       F  0.45272475  0.13058384  0.30196212    -0.14100
F1132       F  0.53381792  0.22289327  0.30026267    -0.15500
C1133       C  0.49061707  0.87673955  0.34373824     0.14600
C1134       C  0.50815218  0.85118079  0.34697941     0.01500
C1135       C  0.52149916  0.84512859  0.37466158     0.16500
C1136       C  0.51835180  0.86511205  0.39857064     0.25900
C1137       C  0.50152271  0.89133956  0.39515938    -0.40400
C1138       C  0.48729941  0.89667547  0.36759316     0.33000
C1139       C  0.51373321  0.83145900  0.32114545     0.01600
F1140       F  0.53834957  0.82028410  0.37818129    -0.12700
F1141       F  0.47015527  0.92124703  0.36370699    -0.13300
C1142       C  0.53584316  0.83888471  0.30019478     0.16500
C1143       C  0.54357180  0.81867846  0.27756220     0.25900
C1144       C  0.52882271  0.79117362  0.27540339    -0.40400
C1145       C  0.50588801  0.78434164  0.29562044     0.32900
C1146       C  0.49847218  0.80428915  0.31843901     0.14600
F1147       F  0.55108315  0.86493321  0.30281439    -0.12700
F1148       F  0.49196286  0.75744884  0.29428477    -0.13200
F1149       F  0.56681250  0.82495423  0.25923859    -0.15500
F1150       F  0.47732422  0.79656664  0.33866441    -0.14100
F1151       F  0.47690951  0.88245684  0.31734875    -0.14100
F1152       F  0.53301669  0.85957561  0.42447380    -0.15500
C1153       C  0.49485852  0.14174962  0.61480531     0.14600
C1154       C  0.50393821  0.13344917  0.64362303     0.01500
C1155       C  0.51360830  0.10425882  0.64875650     0.16500
C1156       C  0.51381883  0.08338132  0.62550510     0.25900
C1157       C  0.50413911  0.09131909  0.59653686    -0.40400
C1158       C  0.49500243  0.12094820  0.59142755     0.33000
C1159       C  0.50308124  0.15534606  0.66831310     0.01600
F1160       F  0.52315510  0.09607552  0.67631154    -0.12700
F1161       F  0.48538500  0.12969513  0.56407564    -0.13300
C1162       C  0.48210611  0.15246214  0.69143964     0.16500
C1163       C  0.47879765  0.17521084  0.71268258     0.25900
C1164       C  0.49681225  0.20080024  0.71127174    -0.40400
C1165       C  0.51904412  0.20269386  0.68924760     0.32900
C1166       C  0.52203784  0.18021603  0.66781946     0.14600
F1167       F  0.46355453  0.12854542  0.69225223    -0.12700
F1168       F  0.53701150  0.22703925  0.68774963    -0.13200
F1169       F  0.45642862  0.17334724  0.73295646    -0.15500
F1170       F  0.54279115  0.18313661  0.64596784    -0.14100
F1171       F  0.48512953  0.16990206  0.60950915    -0.14100
F1172       F  0.52388365  0.05547640  0.63141701    -0.15500
C1173       C  0.48966698  0.81028954  0.67676423     0.14600
C1174       C  0.50978266  0.83401437  0.67342710     0.01500
C1175       C  0.53419514  0.83645830  0.69294919     0.16500
C1176       C  0.53939063  0.81432042  0.71433659     0.25900
C1177       C  0.52012651  0.78977798  0.71640620    -0.40400
C1178       C  0.49484248  0.78828912  0.69810011     0.33000
C1179       C  0.50634974  0.85485895  0.64819822     0.01600
F1180       F  0.55398155  0.85917213  0.68994717    -0.12700
F1181       F  0.47602960  0.76461873  0.69989618    -0.13300
C1182       C  0.49926281  0.88478548  0.65337069     0.16500
C1183       C  0.49602141  0.90444284  0.62942903     0.25900
C1184       C  0.50017298  0.89456440  0.59959411    -0.40400
C1185       C  0.50694574  0.86423840  0.59463699     0.32900
C1186       C  0.51002563  0.84466039  0.61873975     0.14600
F1187       F  0.49523206  0.89493440  0.68169855    -0.12700
F1188       F  0.51134687  0.85351695  0.56659547    -0.13200
F1189       F  0.48874039  0.93316837  0.63572031    -0.15500
F1190       F  0.51736319  0.81576480  0.61339401    -0.14100
F1191       F  0.46566462  0.80786264  0.65851306    -0.14100
F1192       F  0.56425493  0.81568240  0.73149567    -0.15500
C1193       C  0.38257044  0.97914935  0.34411012     0.14600
C1194       C  0.35264346  0.98469254  0.35137090     0.01500
C1195       C  0.34558842  0.99207398  0.38109669     0.16500
C1196       C  0.36790589  0.99384879  0.40306504     0.25900
C1197       C  0.39808128  0.98827094  0.39592335    -0.40400
C1198       C  0.40494485  0.98089168  0.36595661     0.33000
C1199       C  0.32896804  0.98253350  0.32790247     0.01600
F1200       F  0.31687008  0.99701713  0.38906371    -0.12700
F1201       F  0.43334784  0.97501480  0.35756813    -0.13300
C1202       C  0.32499888  0.95592487  0.31155095     0.16500
C1203       C  0.30381415  0.95418198  0.28861206     0.25900
C1204       C  0.28562260  0.97869363  0.28191991    -0.40400
C1205       C  0.28892071  0.00507648  0.29862228     0.32900
C1206       C  0.31057739  0.00709435  0.32123423     0.14600
F1207       F  0.34122634  0.93133942  0.31826363    -0.12700
F1208       F  0.27157387  0.02904020  0.29256587    -0.13200
F1209       F  0.30036379  0.92819266  0.27336896    -0.15500
F1210       F  0.31403943  0.03325587  0.33618031    -0.14100
F1211       F  0.39028479  0.97242349  0.31554707    -0.14100
F1212       F  0.35975921  0.00122952  0.43132655    -0.15500
C1213       C  0.61418224  0.99213551  0.64968623     0.14600
C1214       C  0.64404444  0.99701948  0.64171430     0.01500
C1215       C  0.65148759  0.99820758  0.61124686     0.16500
C1216       C  0.62951439  0.99556067  0.58918347     0.25900
C1217       C  0.59928744  0.99158919  0.59696695    -0.40400
C1218       C  0.59210053  0.98923171  0.62767369     0.33000
C1219       C  0.66736724  0.00155915  0.66503245     0.01600
F1220       F  0.68026359  0.00183725  0.60276034    -0.12700
F1221       F  0.56368668  0.98416698  0.63665465    -0.13300
C1222       C  0.67270251  0.97978435  0.68700680     0.16500
C1223       C  0.69482900  0.98417858  0.70873821     0.25900
C1224       C  0.71194445  0.01047569  0.70899711    -0.40400
C1225       C  0.70653470  0.03224514  0.68710560     0.32900
C1226       C  0.68455553  0.02783941  0.66534871     0.14600
F1227       F  0.65695469  0.95391729  0.68697408    -0.12700
F1228       F  0.72206392  0.05823806  0.68733825    -0.13200
F1229       F  0.70009170  0.96240652  0.72903215    -0.15500
F1230       F  0.67959961  0.04960451  0.64491914    -0.14100
F1231       F  0.60619962  0.99103235  0.67892561    -0.14100
F1232       F  0.63806158  0.99728372  0.56015731    -0.15500
C1233       C  0.38550688  0.99467568  0.64954647     0.14600
C1234       C  0.35531199  0.99508255  0.64166196     0.01500
C1235       C  0.34748081  0.99502311  0.61135122     0.16500
C1236       C  0.36942719  0.99485212  0.58913020     0.25900
C1237       C  0.39995920  0.99426512  0.59674774    -0.40400
C1238       C  0.40761470  0.99422870  0.62744273     0.33000
C1239       C  0.33186810  0.99733550  0.66489107     0.01600
F1240       F  0.31839931  0.99596653  0.60324924    -0.12700
F1241       F  0.43648536  0.99405388  0.63634134    -0.13300
C1242       C  0.32843329  0.02393157  0.68119590     0.16500
C1243       C  0.30536096  0.02687177  0.70204005     0.25900
C1244       C  0.28535345  0.00325814  0.70693128    -0.40400
C1245       C  0.28896299  0.97653184  0.69084070     0.32900
C1246       C  0.31207480  0.97355955  0.66999578     0.14600
F1247       F  0.34713285  0.04725969  0.67642971    -0.12700
F1248       F  0.27074293  0.95298054  0.69622159    -0.13200
F1249       F  0.30217550  0.05295283  0.71713941    -0.15500
F1250       F  0.31548565  0.94733477  0.65515328    -0.14100
F1251       F  0.39359917  0.99466326  0.67877195    -0.14100
F1252       F  0.36052804  0.99572439  0.56017078    -0.15500
C1253       C  0.65676371  0.97911847  0.18787691     0.14600
C1254       C  0.65625089  0.00339333  0.16813535     0.01500
C1255       C  0.67686648  0.02659763  0.17133757     0.16500
C1256       C  0.69893965  0.02479644  0.19308374     0.25900
C1257       C  0.70059917  0.99978399  0.21185211    -0.40400
C1258       C  0.67891764  0.97729421  0.20973180     0.33000
C1259       C  0.63527860  0.00369571  0.14309382     0.01600
F1260       F  0.67640577  0.05025380  0.15246173    -0.12700
F1261       F  0.68074790  0.95248106  0.22694060    -0.13300
C1262       C  0.60574901  0.01204606  0.14789184     0.16500
C1263       C  0.58545102  0.01125462  0.12441150     0.25900
C1264       C  0.59446989  0.00189329  0.09563115    -0.40400
C1265       C  0.62451351  0.99433971  0.09080672     0.32900
C1266       C  0.64476421  0.99537370  0.11441195     0.14600
F1267       F  0.59666516  0.02116615  0.17536011    -0.12700
F1268       F  0.63423487  0.98523831  0.06353702    -0.13200
F1269       F  0.55705981  0.01995881  0.12994733    -0.15500
F1270       F  0.67357620  0.98781223  0.10942285    -0.14100
F1271       F  0.63699209  0.95638910  0.18465045    -0.14100
F1272       F  0.71994184  0.04655538  0.19463640    -0.15500
C1273       C  0.66996752  0.01783353  0.30637792     0.14600
C1274       C  0.66656045  0.99359513  0.32605896     0.01500
C1275       C  0.68539192  0.96876097  0.32274556     0.16500
C1276       C  0.70711072  0.96814654  0.30030849     0.25900
C1277       C  0.71044917  0.99225137  0.28059117    -0.40400
C1278       C  0.69166375  0.01712191  0.28380321     0.33000
C1279       C  0.64343871  0.99398021  0.34998550     0.01600
F1280       F  0.68233656  0.94475006  0.34091435    -0.12700
F1281       F  0.69497713  0.04110046  0.26566471    -0.13300
C1282       C  0.61323535  0.99767553  0.34286090     0.16500
C1283       C  0.59140972  0.99696594  0.36523855     0.25900
C1284       C  0.59916507  0.99207706  0.39546410    -0.40400
C1285       C  0.62963101  0.98861463  0.40247694     0.32900
C1286       C  0.65140088  0.98980454  0.38005106     0.14600
F1287       F  0.60469753  0.00130666  0.31400866    -0.12700
F1288       F  0.63860679  0.98379415  0.43100946    -0.13200
F1289       F  0.56264702  0.00118068  0.35706247    -0.15500
F1290       F  0.68047396  0.98714344  0.38779094    -0.14100
F1291       F  0.65278961  0.04252001  0.30951947    -0.14100
F1292       F  0.72448970  0.94361480  0.29731677    -0.15500
C1293       C  0.34138431  0.88870922  0.48900222     0.14600
C1294       C  0.34564514  0.85788662  0.48741255     0.01500
C1295       C  0.37447743  0.84618898  0.49041464     0.16500
C1296       C  0.39893729  0.86516739  0.49415369     0.25900
C1297       C  0.39497603  0.89633175  0.49486512    -0.40400
C1298       C  0.36562031  0.90776516  0.49279512     0.33000
C1299       C  0.32005560  0.83766331  0.48325435     0.01600
F1300       F  0.37887094  0.81622870  0.49007381    -0.12700
F1301       F  0.35999542  0.93750037  0.49404760    -0.13300
C1302       C  0.31958726  0.81783976  0.45896058     0.16500
C1303       C  0.29841937  0.79512599  0.45775833     0.25900
C1304       C  0.27743260  0.79194118  0.48081872    -0.40400
C1305       C  0.27633201  0.81325013  0.50383719     0.32900
C1306       C  0.29743182  0.83619005  0.50490404     0.14600
F1307       F  0.34060267  0.81957997  0.43722479    -0.12700
F1308       F  0.25697018  0.81009465  0.52688635    -0.13200
F1309       F  0.29965612  0.77491782  0.43512687    -0.15500
F1310       F  0.29729846  0.85540177  0.52840364    -0.14100
F1311       F  0.31370366  0.90047346  0.48625914    -0.14100
F1312       F  0.42635263  0.85289642  0.49709025    -0.15500
C1313       C  0.69306316  0.83080493  0.51280514     0.14600
C1314       C  0.67253319  0.83044817  0.48913607     0.01500
C1315       C  0.67488186  0.80867952  0.46674264     0.16500
C1316       C  0.69677492  0.78676250  0.46856809     0.25900
C1317       C  0.71653599  0.78623516  0.49288753    -0.40400
C1318       C  0.71484096  0.80863778  0.51481855     0.33000
C1319       C  0.64750046  0.85158304  0.48882314     0.01600
F1320       F  0.65535192  0.80816681  0.44361431    -0.12700
F1321       F  0.73253191  0.80764720  0.53935618    -0.13300
C1322       C  0.65267373  0.88193758  0.48399397     0.16500
C1323       C  0.62909465  0.90208471  0.48459162     0.25900
C1324       C  0.59973095  0.89228513  0.49084354    -0.40400
C1325       C  0.59468511  0.86155565  0.49511530     0.32900
C1326       C  0.61837169  0.84140487  0.49382879     0.14600
F1327       F  0.68062932  0.89205080  0.47842681    -0.12700
F1328       F  0.56703982  0.85094090  0.50116032    -0.13200
F1329       F  0.63527366  0.93118499  0.47884092    -0.15500
F1330       F  0.61301516  0.81192302  0.49819377    -0.14100
F1331       F  0.69077306  0.85150573  0.53488809    -0.14100
F1332       F  0.69798306  0.76526511  0.44717382    -0.15500
C1333       C  0.69335178  0.15359302  0.47296093     0.14600
C1334       C  0.67483353  0.14968399  0.49790729     0.01500
C1335       C  0.67831716  0.16813839  0.52298482     0.16500
C1336       C  0.69909528  0.19130391  0.52253165     0.25900
C1337       C  0.71673163  0.19620484  0.49705882    -0.40400
C1338       C  0.71435192  0.17670543  0.47257267     0.33000
C1339       C  0.65046412  0.12775417  0.49707800     0.01600
F1340       F  0.66021712  0.16493493  0.54706848    -0.12700
F1341       F  0.73035232  0.18170631  0.44735288    -0.13300
C1342       C  0.65351017  0.10030156  0.51155389     0.16500
C1343       C  0.63011592  0.07976007  0.51128927     0.25900
C1344       C  0.60308930  0.08664077  0.49681333    -0.40400
C1345       C  0.60025697  0.11420133  0.48217628     0.32900
C1346       C  0.62380601  0.13459576  0.48232254     0.14600
F1347       F  0.67919777  0.09343787  0.52590080    -0.12700
F1348       F  0.57503781  0.12105853  0.46701132    -0.13200
F1349       F  0.63380389  0.05336570  0.52562011    -0.15500
F1350       F  0.62057962  0.16114399  0.46819071    -0.14100
F1351       F  0.68988698  0.13603570  0.44844194    -0.14100
F1352       F  0.70064905  0.21029872  0.54617265    -0.15500
C1353       C  0.30740878  0.15335103  0.51566354     0.14600
C1354       C  0.32731015  0.15311436  0.49144062     0.01500
C1355       C  0.32331615  0.17334312  0.46798141     0.16500
C1356       C  0.30092041  0.19487698  0.46963519     0.25900
C1357       C  0.28200741  0.19633941  0.49464857    -0.40400
C1358       C  0.28475311  0.17479280  0.51721376     0.33000
C1359       C  0.35260257  0.13214105  0.49084883     0.01600
F1360       F  0.34189600  0.17296118  0.44406058    -0.12700
F1361       F  0.26711579  0.17599824  0.54180015    -0.13300
C1362       C  0.34861924  0.10328149  0.47958777     0.16500
C1363       C  0.37226936  0.08314267  0.47925708     0.25900
C1364       C  0.40040009  0.09133535  0.49079296    -0.40400
C1365       C  0.40450395  0.12068373  0.50140256     0.32900
C1366       C  0.38076955  0.14093164  0.50132479     0.14600
F1367       F  0.32168438  0.09459046  0.46893270    -0.12700
F1368       F  0.43113464  0.12955940  0.51268478    -0.13200
F1369       F  0.36757304  0.05564808  0.46734342    -0.15500
F1370       F  0.38512198  0.16900040  0.51193405    -0.14100
F1371       F  0.31092080  0.13376458  0.53846369    -0.14100
F1372       F  0.29866588  0.21544597  0.44754764    -0.15500
C1373       C  0.84347237  0.99630439  0.60468656     0.14600
C1374       C  0.84854799  0.00853018  0.63309294     0.01500
C1375       C  0.87766955  0.01656339  0.64136271     0.16500
C1376       C  0.90124398  0.01322099  0.62122328     0.25900
C1377       C  0.89614540  0.00156763  0.59241304    -0.40400
C1378       C  0.86693714  0.99289394  0.58451947     0.33000
C1379       C  0.82349535  0.01317035  0.65406571     0.01600
F1380       F  0.88330319  0.02756113  0.66909072    -0.12700
F1381       F  0.86089994  0.98106989  0.55721104    -0.13300
C1382       C  0.80598543  0.98893018  0.66354402     0.16500
C1383       C  0.78405170  0.99300418  0.68534802     0.25900
C1384       C  0.77957158  0.02127541  0.69811181    -0.40400
C1385       C  0.79619263  0.04569622  0.68779303     0.32900
C1386       C  0.81778507  0.04175029  0.66570102     0.14600
F1387       F  0.81153502  0.96098182  0.65322560    -0.12700
F1388       F  0.79246864  0.07309821  0.70023149    -0.13200
F1389       F  0.76914618  0.96888601  0.69597111    -0.15500
F1390       F  0.83381009  0.06566930  0.65632595    -0.14100
F1391       F  0.81558940  0.98825365  0.59618688    -0.14100
F1392       F  0.92882380  0.02229983  0.62968393    -0.15500
C1393       C  0.14670767  0.97897043  0.60789895     0.14600
C1394       C  0.14690435  0.99914056  0.63186029     0.01500
C1395       C  0.12295162  0.01890491  0.63566615     0.16500
C1396       C  0.09899289  0.01841441  0.61565256     0.25900
C1397       C  0.09900277  0.99845563  0.59137145    -0.40400
C1398       C  0.12321366  0.97892731  0.58753174     0.33000
C1399       C  0.17159694  0.99854363  0.65353195     0.01600
F1400       F  0.12259737  0.03828871  0.65902216    -0.12700
F1401       F  0.12385017  0.95934508  0.56432908    -0.13300
C1402       C  0.19257525  0.02181129  0.65466006     0.16500
C1403       C  0.21499717  0.02171549  0.67642756     0.25900
C1404       C  0.21636225  0.99845893  0.69735897    -0.40400
C1405       C  0.19623138  0.97455219  0.69517047     0.32900
C1406       C  0.17397429  0.97461586  0.67348143     0.14600
F1407       F  0.19060745  0.04506138  0.63539555    -0.12700
F1408       F  0.19708067  0.95199675  0.71534058    -0.13200
F1409       F  0.23379228  0.04536888  0.67853628    -0.15500
F1410       F  0.15363652  0.95218204  0.67304553    -0.14100
F1411       F  0.16934919  0.95928502  0.60429503    -0.14100
F1412       F  0.07624647  0.03793882  0.61948113    -0.15500
C1413       C  0.11863262  0.98817100  0.34511647     0.14600
C1414       C  0.14795772  0.99184689  0.35546448     0.01500
C1415       C  0.15300201  0.99615836  0.38598951     0.16500
C1416       C  0.12922534  0.99675498  0.40601741     0.25900
C1417       C  0.09952775  0.99306568  0.39592709    -0.40400
C1418       C  0.09463261  0.98872734  0.36509447     0.33000
C1419       C  0.17327923  0.99064467  0.33438431     0.01600
F1420       F  0.18108465  0.00023271  0.39643005    -0.12700
F1421       F  0.06676628  0.98452280  0.35417614    -0.13300
C1422       C  0.17475801  0.01078269  0.31048626     0.16500
C1423       C  0.19625638  0.00723474  0.28830634     0.25900
C1424       C  0.21669624  0.98363690  0.28976600    -0.40400
C1425       C  0.21662176  0.96469430  0.31464129     0.32900
C1426       C  0.19510487  0.96830628  0.33699287     0.14600
F1427       F  0.15473094  0.03328426  0.30814116    -0.12700
F1428       F  0.23566842  0.94128459  0.31603477    -0.13200
F1429       F  0.19616561  0.02587780  0.26443772    -0.15500
F1430       F  0.19434136  0.94879783  0.36012416    -0.14100
F1431       F  0.11329970  0.98336666  0.31563010    -0.14100
F1432       F  0.13562934  0.00116822  0.43534563    -0.15500
C1433       C  0.87501208  0.00282895  0.34637277     0.14600
C1434       C  0.84777184  0.99006497  0.35498770     0.01500
C1435       C  0.84411562  0.97970523  0.38416590     0.16500
C1436       C  0.86743098  0.98187362  0.40462957     0.25900
C1437       C  0.89514481  0.99421574  0.39614632    -0.40400
C1438       C  0.89854704  0.00497616  0.36680991     0.33000
C1439       C  0.82321519  0.98706118  0.33340492     0.01600
F1440       F  0.81796847  0.96712485  0.39271551    -0.12700
F1441       F  0.92429308  0.01825397  0.35813072    -0.13300
C1442       C  0.82222362  0.96240845  0.31412584     0.16500
C1443       C  0.80033427  0.96058205  0.29210130     0.25900
C1444       C  0.77926354  0.98350176  0.28890319    -0.40400
C1445       C  0.77917157  0.00730905  0.30941163     0.32900
C1446       C  0.80102746  0.00898263  0.33165631     0.14600
F1447       F  0.84309482  0.94064865  0.31600327    -0.12700
F1448       F  0.75956683  0.03008741  0.30646010    -0.13200
F1449       F  0.80050823  0.93708839  0.27287444    -0.15500
F1450       F  0.80145081  0.03267800  0.35059950    -0.14100
F1451       F  0.87872094  0.01327812  0.31817540    -0.14100
F1452       F  0.86288918  0.97133517  0.43264498    -0.15500
C1453       C  0.11118276  0.84215750  0.49496611     0.14600
C1454       C  0.14149235  0.84971488  0.49328743     0.01500
C1455       C  0.14932903  0.88004116  0.49160706     0.16500
C1456       C  0.12740803  0.90234658  0.49161848     0.25900
C1457       C  0.09679539  0.89496035  0.49342601    -0.40400
C1458       C  0.08914198  0.86435490  0.49495908     0.33000
C1459       C  0.16484904  0.82598665  0.49241475     0.01600
F1460       F  0.17841933  0.88815425  0.49023234    -0.12700
F1461       F  0.06025673  0.85559727  0.49617284    -0.13300
C1462       C  0.18417902  0.82363530  0.46777504     0.16500
C1463       C  0.20601697  0.80133966  0.46670368     0.25900
C1464       C  0.20924037  0.78097832  0.49033056    -0.40400
C1465       C  0.18989739  0.78322939  0.51497938     0.32900
C1466       C  0.16788943  0.80544318  0.51598359     0.14600
F1467       F  0.18148669  0.84261754  0.44436532    -0.12700
F1468       F  0.19298953  0.76455203  0.53857110    -0.13200
F1469       F  0.22367049  0.79919924  0.44220448    -0.15500
F1470       F  0.15001967  0.80737523  0.54036463    -0.14100
F1471       F  0.10280657  0.81305819  0.49582261    -0.14100
F1472       F  0.13643235  0.93119047  0.48957445    -0.15500
C1473       C  0.87998523  0.84688046  0.50647180     0.14600
C1474       C  0.85047970  0.85412119  0.49923996     0.01500
C1475       C  0.84379000  0.88347949  0.49072428     0.16500
C1476       C  0.86618932  0.90524826  0.48957019     0.25900
C1477       C  0.89591713  0.89814206  0.49695022    -0.40400
C1478       C  0.90243457  0.86854217  0.50538692     0.33000
C1479       C  0.82695535  0.83078250  0.50026665     0.01600
F1480       F  0.81541914  0.89120498  0.48386080    -0.12700
F1481       F  0.93050051  0.86041363  0.51297178    -0.13300
C1482       C  0.82101156  0.81547100  0.52702175     0.16500
C1483       C  0.80040738  0.79200859  0.52753777     0.25900
C1484       C  0.78525854  0.78358283  0.50144037    -0.40400
C1485       C  0.79050418  0.79933548  0.47487996     0.32900
C1486       C  0.81127167  0.82271961  0.47424900     0.14600
F1487       F  0.83514594  0.82333318  0.55267162    -0.12700
F1488       F  0.77620980  0.79134793  0.44938519    -0.13200
F1489       F  0.79484205  0.77768546  0.55360794    -0.15500
F1490       F  0.81690509  0.83676464  0.44800995    -0.14100
F1491       F  0.88719573  0.81852023  0.51413350    -0.14100
F1492       F  0.85864859  0.93319393  0.48086998    -0.15500
C1493       C  0.88528248  0.15173604  0.48789784     0.14600
C1494       C  0.85486295  0.14449589  0.48821116     0.01500
C1495       C  0.84655091  0.11427016  0.48849557     0.16500
C1496       C  0.86808160  0.09166937  0.48872485     0.25900
C1497       C  0.89877528  0.09867532  0.48905398    -0.40400
C1498       C  0.90697745  0.12921046  0.48839423     0.33000
C1499       C  0.83158348  0.16820084  0.48885132     0.01600
F1500       F  0.81732344  0.10657390  0.48834845    -0.12700
F1501       F  0.93602611  0.13755730  0.48852325    -0.13300
C1502       C  0.82841030  0.18843068  0.46505957     0.16500
C1503       C  0.80505515  0.20926026  0.46497989     0.25900
C1504       C  0.78466089  0.21048836  0.48885211    -0.40400
C1505       C  0.78844524  0.19084567  0.51298646     0.32900
C1506       C  0.81155591  0.16990023  0.51294728     0.14600
F1507       F  0.84735971  0.18736797  0.44145709    -0.12700
F1508       F  0.77007569  0.19240009  0.53698103    -0.13200
F1509       F  0.80172734  0.22754462  0.44111132    -0.15500
F1510       F  0.81460763  0.15137196  0.53668211    -0.14100
F1511       F  0.89405571  0.18073690  0.48794947    -0.14100
F1512       F  0.85858819  0.06290481  0.48871258    -0.15500
C1513       C  0.11296980  0.14718576  0.50275501     0.14600
C1514       C  0.14282510  0.13948746  0.49745523     0.01500
C1515       C  0.14984328  0.10958648  0.49121651     0.16500
C1516       C  0.12753636  0.08783836  0.48998635     0.25900
C1517       C  0.09755079  0.09535608  0.49551407    -0.40400
C1518       C  0.09063210  0.12538312  0.50214660     0.33000
C1519       C  0.16676199  0.16240561  0.49901978     0.01600
F1520       F  0.17853568  0.10122509  0.48690189    -0.12700
F1521       F  0.06231998  0.13378404  0.50853702    -0.13300
C1522       C  0.17016187  0.18018626  0.52475157     0.16500
C1523       C  0.19303405  0.20133765  0.52650344     0.25900
C1524       C  0.21295550  0.20516650  0.50261413    -0.40400
C1525       C  0.20965474  0.18741720  0.47690645     0.32900
C1526       C  0.18674058  0.16625779  0.47508116     0.14600
F1527       F  0.15172637  0.17660069  0.54851377    -0.12700
F1528       F  0.22795587  0.19138585  0.45313576    -0.13200
F1529       F  0.19613851  0.21776490  0.55181857    -0.15500
F1530       F  0.18363034  0.14999709  0.44962798    -0.14100
F1531       F  0.10531872  0.17597188  0.50824872    -0.14100
F1532       F  0.13551254  0.05941196  0.48323120    -0.15500
C1533       C  0.98344113  0.67597946  0.17614919     0.14600
C1534       C  0.00374503  0.65242461  0.17408941     0.01500
C1535       C  0.02591459  0.64914652  0.19601685     0.16500
C1536       C  0.02938368  0.67093207  0.21820447     0.25900
C1537       C  0.01054338  0.69580215  0.21855178    -0.40400
C1538       C  0.98682865  0.69754612  0.19826640     0.33000
C1539       C  0.00275000  0.63248760  0.14799189     0.01600
F1540       F  0.04544408  0.62612539  0.19456721    -0.12700
F1541       F  0.96832166  0.72145299  0.19857056    -0.13300
C1542       C  0.00842048  0.64366892  0.11922946     0.16500
C1543       C  0.00747082  0.62471202  0.09435262     0.25900
C1544       C  0.00067425  0.59423376  0.09796687    -0.40400
C1545       C  0.99431974  0.58350912  0.12705104     0.32900
C1546       C  0.99562131  0.60243236  0.15169896     0.14600
F1547       F  0.01543179  0.67289417  0.11538433    -0.12700
F1548       F  0.98651726  0.55464513  0.13193172    -0.13200
F1549       F  0.01378945  0.63613151  0.06700972    -0.15500
F1550       F  0.98943762  0.59146918  0.17926961    -0.14100
F1551       F  0.96126265  0.67884799  0.15578365    -0.14100
F1552       F  0.05257126  0.66915542  0.23753831    -0.15500
C1553       C  0.03914166  0.81943831  0.32142514     0.14600
C1554       C  0.01097251  0.82242919  0.33447655     0.01500
C1555       C  0.98845553  0.80171242  0.32795046     0.16500
C1556       C  0.99365039  0.77893611  0.30729492     0.25900
C1557       C  0.02150883  0.77671993  0.29326211    -0.40400
C1558       C  0.04442043  0.79658546  0.30102130     0.33000
C1559       C  0.00535519  0.84693987  0.35537771     0.01600
F1560       F  0.96111449  0.80448535  0.34054554    -0.12700
F1561       F  0.07160593  0.79437212  0.28796988    -0.13300
C1562       C  0.00416070  0.87645600  0.34523439     0.16500
C1563       C  0.00060789  0.89985356  0.36555889     0.25900
C1564       C  0.99866422  0.89397261  0.39648938    -0.40400
C1565       C  0.99907256  0.86395883  0.40622313     0.32900
C1566       C  0.00224760  0.84077995  0.38576257     0.14600
F1567       F  0.00653681  0.88256428  0.31562511    -0.12700
F1568       F  0.99696826  0.85672323  0.43558441    -0.13200
F1569       F  0.99950081  0.92813628  0.35483559    -0.15500
F1570       F  0.00319634  0.81219992  0.39569986    -0.14100
F1571       F  0.06131307  0.83896050  0.32811160    -0.14100
F1572       F  0.97091488  0.76056436  0.29940027    -0.15500
C1573       C  0.01783027  0.33594777  0.79941852     0.14600
C1574       C  0.99682222  0.33476361  0.82259451     0.01500
C1575       C  0.97648966  0.31109445  0.82387939     0.16500
C1576       C  0.97808528  0.28799460  0.80305052     0.25900
C1577       C  0.00013117  0.28823413  0.78076006    -0.40400
C1578       C  0.01957900  0.31268803  0.77859219     0.33000
C1579       C  0.99769412  0.35676959  0.84694864     0.01600
F1580       F  0.95601116  0.30972935  0.84614564    -0.12700
F1581       F  0.04181163  0.31283432  0.75807766    -0.13300
C1582       C  0.98399525  0.38453479  0.84359057     0.16500
C1583       C  0.98465713  0.40524670  0.86692566     0.25900
C1584       C  0.99887312  0.39833556  0.89414389    -0.40400
C1585       C  0.01254476  0.37030554  0.89737103     0.32900
C1586       C  0.01199689  0.34971866  0.87386210     0.14600
F1587       F  0.96968082  0.39140269  0.81781734    -0.12700
F1588       F  0.02710526  0.36310732  0.92289209    -0.13200
F1589       F  0.97080521  0.43184048  0.86307075    -0.15500
F1590       F  0.02564392  0.32293258  0.87717982    -0.14100
F1591       F  0.03779608  0.35866817  0.79817311    -0.14100
F1592       F  0.95904028  0.26456238  0.80550497    -0.15500
C1593       C  0.00139981  0.11888859  0.64070423     0.14600
C1594       C  0.00163852  0.14847827  0.63059060     0.01500
C1595       C  0.99932545  0.15431631  0.60001757     0.16500
C1596       C  0.99777294  0.13074731  0.57958798     0.25900
C1597       C  0.99861337  0.10070884  0.58951059    -0.40400
C1598       C  0.00016334  0.09522184  0.62045727     0.33000
C1599       C  0.00636351  0.17286145  0.65216501     0.01600
F1600       F  0.99962086  0.18284681  0.58987507    -0.12700
F1601       F  0.00109758  0.06701319  0.63134389    -0.13300
C1602       C  0.03275643  0.17347223  0.66886230     0.16500
C1603       C  0.03582757  0.19321548  0.69271456     0.25900
C1604       C  0.01271818  0.21293639  0.69991501    -0.40400
C1605       C  0.98693365  0.21356339  0.68218813     0.32900
C1606       C  0.98382295  0.19366471  0.65825391     0.14600
F1607       F  0.05496135  0.15384370  0.66289626    -0.12700
F1608       F  0.96368694  0.23131528  0.68978932    -0.13200
F1609       F  0.06069922  0.19196694  0.70986525    -0.15500
F1610       F  0.95801484  0.19318593  0.64251480    -0.14100
F1611       F  0.00277786  0.11294076  0.67040271    -0.14100
F1612       F  0.99600966  0.13762590  0.55010945    -0.15500
C1613       C  0.98408649  0.68068538  0.82038213     0.14600
C1614       C  0.00481336  0.65735986  0.82033848     0.01500
C1615       C  0.02579311  0.65544669  0.79712271     0.16500
C1616       C  0.02733394  0.67780169  0.77535738     0.25900
C1617       C  0.00775716  0.70218585  0.77654471    -0.40400
C1618       C  0.98554089  0.70291476  0.79865819     0.33000
C1619       C  0.00516355  0.63578098  0.84521286     0.01600
F1620       F  0.04590077  0.63289890  0.79661499    -0.12700
F1621       F  0.96594867  0.72590299  0.79987606    -0.13300
C1622       C  0.99762867  0.60591858  0.84010702     0.16500
C1623       C  0.99688082  0.58568989  0.86375136     0.25900
C1624       C  0.00424533  0.59484268  0.89314647    -0.40400
C1625       C  0.01242609  0.62485878  0.89799291     0.32900
C1626       C  0.01265916  0.64513851  0.87424441     0.14600
F1627       F  0.99039970  0.59644669  0.81219323    -0.12700
F1628       F  0.02076063  0.63457076  0.92550839    -0.13200
F1629       F  0.98840509  0.55721404  0.85769781    -0.15500
F1630       F  0.02070079  0.67390019  0.87945946    -0.14100
F1631       F  0.96292061  0.68230075  0.84197338    -0.14100
F1632       F  0.04941295  0.67679383  0.75472191    -0.15500
C1633       C  0.04240366  0.81310717  0.66139744     0.14600
C1634       C  0.01433009  0.81906661  0.64905717     0.01500
C1635       C  0.98989907  0.80129099  0.65721324     0.16500
C1636       C  0.99303425  0.77930402  0.67914499     0.25900
C1637       C  0.02052751  0.77524239  0.69344820    -0.40400
C1638       C  0.04538866  0.79160544  0.68377477     0.33000
C1639       C  0.01027702  0.84503694  0.62920683     0.01600
F1640       F  0.96275705  0.80623313  0.64492645    -0.12700
F1641       F  0.07209864  0.78812744  0.69746139    -0.13300
C1642       C  0.02235197  0.84474370  0.60042218     0.16500
C1643       C  0.01919634  0.86946128  0.58186008     0.25900
C1644       C  0.00382213  0.89517949  0.59169462    -0.40400
C1645       C  0.99214499  0.89564256  0.62084414     0.32900
C1646       C  0.99521201  0.87062277  0.63939311     0.14600
F1647       F  0.03703541  0.82033325  0.59016499    -0.12700
F1648       F  0.97719617  0.91987189  0.63110471    -0.13200
F1649       F  0.03169675  0.86831000  0.55425443    -0.15500
F1650       F  0.98372124  0.87138382  0.66743521    -0.14100
F1651       F  0.06646035  0.82954533  0.65324113    -0.14100
F1652       F  0.96865189  0.76398277  0.68838446    -0.15500
C1653       C  0.15985131  0.68658340  0.47652909     0.14600
C1654       C  0.15888478  0.66686837  0.50087410     0.01500
C1655       C  0.17880529  0.67057689  0.52465450     0.16500
C1656       C  0.20038920  0.69291706  0.52352916     0.25900
C1657       C  0.20233574  0.71177967  0.49859530    -0.40400
C1658       C  0.18160728  0.70892668  0.47533168     0.33000
C1659       C  0.13789308  0.64164882  0.50095979     0.01600
F1660       F  0.17802425  0.65180635  0.54839355    -0.12700
F1661       F  0.18407323  0.72596744  0.45041909    -0.13300
C1662       C  0.14796405  0.61251228  0.49553768     0.16500
C1663       C  0.12787437  0.58860587  0.49485583     0.25900
C1664       C  0.09733108  0.59349936  0.49987519    -0.40400
C1665       C  0.08765930  0.62297628  0.50618792     0.32900
C1666       C  0.10777110  0.64668962  0.50654682     0.14600
F1667       F  0.17726961  0.60733964  0.49042967    -0.12700
F1668       F  0.05872387  0.62915657  0.51225814    -0.13200
F1669       F  0.13832710  0.56088195  0.48871638    -0.15500
F1670       F  0.09788182  0.67466364  0.51267503    -0.14100
F1671       F  0.14094036  0.68294016  0.45315416    -0.14100
F1672       F  0.22053870  0.69515921  0.54602495    -0.15500
C1673       C  0.83034500  0.30371476  0.50820889     0.14600
C1674       C  0.83107045  0.32633236  0.48657259     0.01500
C1675       C  0.81102714  0.32539181  0.46257942     0.16500
C1676       C  0.78995054  0.30254840  0.46072103     0.25900
C1677       C  0.78857206  0.28035349  0.48284502    -0.40400
C1678       C  0.80922209  0.28081375  0.50636689     0.33000
C1679       C  0.85318027  0.35057783  0.48873109     0.01600
F1680       F  0.81104823  0.34732480  0.44170868    -0.12700
F1681       F  0.80755779  0.26045627  0.52868615    -0.13300
C1682       C  0.87644269  0.35200437  0.46791607     0.16500
C1683       C  0.89853878  0.37372203  0.47071736     0.25900
C1684       C  0.89694995  0.39516603  0.49360017    -0.40400
C1685       C  0.87322643  0.39430882  0.51402899     0.32900
C1686       C  0.85164358  0.37183266  0.51185194     0.14600
F1687       F  0.87795085  0.33201320  0.44513046    -0.12700
F1688       F  0.87153200  0.41460385  0.53655011    -0.13200
F1689       F  0.92132221  0.37411136  0.45078965    -0.15500
F1690       F  0.82919438  0.37085356  0.53213318    -0.14100
F1691       F  0.84969086  0.30427678  0.53147958    -0.14100
F1692       F  0.76992166  0.30277667  0.43800745    -0.15500
C1693       C  0.14518282  0.36965249  0.50177611     0.14600
C1694       C  0.13532680  0.34074050  0.50875671     0.01500
C1695       C  0.10490842  0.33560559  0.51304624     0.16500
C1696       C  0.08450830  0.35900144  0.51043350     0.25900
C1697       C  0.09411797  0.38817700  0.50299874    -0.40400
C1698       C  0.12484104  0.39308236  0.49864077     0.33000
C1699       C  0.15694880  0.31602227  0.51157202     0.01600
F1700       F  0.09501529  0.30794552  0.52040798    -0.12700
F1701       F  0.13533815  0.42042995  0.49097551    -0.13300
C1702       C  0.17706755  0.31565063  0.53550112     0.16500
C1703       C  0.19977031  0.29441740  0.53642742     0.25900
C1704       C  0.20310004  0.27350731  0.51315902    -0.40400
C1705       C  0.18183475  0.27271894  0.49011451     0.32900
C1706       C  0.15874960  0.29372770  0.48948661     0.14600
F1707       F  0.17529903  0.33653465  0.55745280    -0.12700
F1708       F  0.18478624  0.25338460  0.46693062    -0.13200
F1709       F  0.21944701  0.29509697  0.55943069    -0.15500
F1710       F  0.13930408  0.29355280  0.46629113    -0.14100
F1711       F  0.17461612  0.37511582  0.49765483    -0.14100
F1712       F  0.05539344  0.35296581  0.51577497    -0.15500
C1713       C  0.89424702  0.64753941  0.52185634     0.14600
C1714       C  0.86627424  0.64680520  0.50807103     0.01500
C1715       C  0.85717445  0.62079821  0.49291197     0.16500
C1716       C  0.87617219  0.59622788  0.49064329     0.25900
C1717       C  0.90458255  0.59719763  0.50368119    -0.40400
C1718       C  0.91329271  0.62302535  0.51962500     0.33000
C1719       C  0.84668569  0.67328180  0.50848441     0.01600
F1720       F  0.82981657  0.61930928  0.48014683    -0.12700
F1721       F  0.94027285  0.62456338  0.53321055    -0.13300
C1722       C  0.83794719  0.68633728  0.48137907     0.16500
C1723       C  0.81555972  0.70789542  0.48093067     0.25900
C1724       C  0.80156918  0.71658606  0.50757475    -0.40400
C1725       C  0.81178533  0.70521567  0.53489145     0.32900
C1726       C  0.83446274  0.68386069  0.53541021     0.14600
F1727       F  0.84984571  0.67677300  0.45516850    -0.12700
F1728       F  0.79797883  0.71285913  0.56077417    -0.13200
F1729       F  0.80551000  0.71808705  0.45425133    -0.15500
F1730       F  0.84263496  0.67171290  0.56190911    -0.14100
F1731       F  0.90343670  0.67228452  0.53681717    -0.14100
F1732       F  0.86719156  0.57200208  0.47473877    -0.15500
C1733       C  0.14839655  0.48176420  0.37829048     0.14600
C1734       C  0.13913327  0.48561957  0.34856874     0.01500
C1735       C  0.10879136  0.48861825  0.34233011     0.16500
C1736       C  0.08802687  0.48935596  0.36545117     0.25900
C1737       C  0.09716215  0.48661617  0.39558955    -0.40400
C1738       C  0.12761980  0.48194923  0.40157966     0.33000
C1739       C  0.16111940  0.48792710  0.32413489     0.01600
F1740       F  0.09923473  0.49093254  0.31365005    -0.12700
F1741       F  0.13748461  0.47761362  0.42989948    -0.13300
C1742       C  0.18140039  0.46474842  0.31881238     0.16500
C1743       C  0.20368137  0.46816304  0.29737164     0.25900
C1744       C  0.20553759  0.49444147  0.28047466    -0.40400
C1745       C  0.18453267  0.51710182  0.28478500     0.32900
C1746       C  0.16256557  0.51397401  0.30667748     0.14600
F1747       F  0.18003089  0.43912399  0.33485573    -0.12700
F1748       F  0.18672672  0.54311842  0.26947396    -0.13200
F1749       F  0.22424043  0.44628967  0.29380905    -0.15500
F1750       F  0.14382316  0.53708150  0.31210559    -0.14100
F1751       F  0.17771020  0.47869066  0.38487820    -0.14100
F1752       F  0.05900006  0.49313066  0.35801350    -0.15500
C1753       C  0.89039911  0.48465638  0.34168366     0.14600
C1754       C  0.86159025  0.49550541  0.34583359     0.01500
C1755       C  0.85276727  0.50596270  0.37403518     0.16500
C1756       C  0.87261354  0.50537043  0.39810710     0.25900
C1757       C  0.90167096  0.49425508  0.39422028    -0.40400
C1758       C  0.91031639  0.48400821  0.36555823     0.33000
C1759       C  0.84030135  0.49506675  0.32094736     0.01600
F1760       F  0.82488775  0.51682107  0.37814999    -0.12700
F1761       F  0.93796417  0.47292865  0.36051503    -0.13300
C1762       C  0.82157304  0.47033126  0.31705809     0.16500
C1763       C  0.79898640  0.47112804  0.29572883     0.25900
C1764       C  0.79530767  0.49643152  0.27768439    -0.40400
C1765       C  0.81508297  0.52053129  0.28044814     0.32900
C1766       C  0.83745358  0.51990433  0.30214943     0.14600
F1767       F  0.82435547  0.44602820  0.33487184    -0.12700
F1768       F  0.81120825  0.54551538  0.26384128    -0.13200
F1769       F  0.77979213  0.44778767  0.29354462    -0.15500
F1770       F  0.85536544  0.54404070  0.30588279    -0.14100
F1771       F  0.89917162  0.47452468  0.31445722    -0.14100
F1772       F  0.86355605  0.51629888  0.42491476    -0.15500
C1773       C  0.17658278  0.52308618  0.67319944     0.14600
C1774       C  0.15841543  0.49774851  0.67080742     0.01500
C1775       C  0.16224686  0.47386418  0.69059549     0.16500
C1776       C  0.18514666  0.47466373  0.71169433     0.25900
C1777       C  0.20429638  0.49941123  0.71312310    -0.40400
C1778       C  0.19941890  0.52392644  0.69429716     0.33000
C1779       C  0.13673237  0.49548448  0.64640229     0.01600
F1780       F  0.14490797  0.44913502  0.68824772    -0.12700
F1781       F  0.21770565  0.54804703  0.69546426    -0.13300
C1782       C  0.14567713  0.48497337  0.61826881     0.16500
C1783       C  0.12523681  0.48314829  0.59481054     0.25900
C1784       C  0.09554395  0.49215457  0.59916663    -0.40400
C1785       C  0.08677589  0.50254982  0.62772380     0.32900
C1786       C  0.10724599  0.50409169  0.65107590     0.14600
F1787       F  0.17427631  0.47647760  0.61359840    -0.12700
F1788       F  0.05855288  0.51192438  0.63306951    -0.13200
F1789       F  0.13444879  0.47216198  0.56807430    -0.15500
F1790       F  0.09839939  0.51436564  0.67822316    -0.14100
F1791       F  0.17304073  0.54633151  0.65415142    -0.14100
F1792       F  0.19020399  0.45030547  0.72889389    -0.15500
C1793       C  0.89042167  0.49914277  0.65200179     0.14600
C1794       C  0.86014769  0.49422537  0.64664978     0.01500
C1795       C  0.84999590  0.49137488  0.61706165     0.16500
C1796       C  0.86998266  0.49270158  0.59314975     0.25900
C1797       C  0.90063367  0.49680544  0.59842832    -0.40400
C1798       C  0.91046006  0.50057459  0.62826659     0.33000
C1799       C  0.83910710  0.49165029  0.67188712     0.01600
F1800       F  0.82074543  0.48634518  0.61135908    -0.12700
F1801       F  0.93954282  0.50561153  0.63480229    -0.13300
C1802       C  0.81465944  0.51093777  0.67370398     0.16500
C1803       C  0.79280718  0.50639686  0.69531191     0.25900
C1804       C  0.79506115  0.48257062  0.71553112    -0.40400
C1805       C  0.82033191  0.46428644  0.71493847     0.32900
C1806       C  0.84234080  0.46885942  0.69323757     0.14600
F1807       F  0.81142709  0.53352570  0.65381840    -0.12700
F1808       F  0.82250071  0.44064261  0.73368124    -0.13200
F1809       F  0.76851798  0.52435768  0.69556803    -0.15500
F1810       F  0.86573709  0.44980884  0.69174978    -0.14100
F1811       F  0.90062284  0.50271593  0.68034023    -0.14100
F1812       F  0.85927095  0.48919343  0.56499690    -0.15500
C1813       C  0.00665786  0.60939380  0.34549469     0.14600
C1814       C  0.00338495  0.63927165  0.35444704     0.01500
C1815       C  0.99882340  0.64573148  0.38475622     0.16500
C1816       C  0.99759641  0.62280423  0.40586210     0.25900
C1817       C  0.00122421  0.59262992  0.39719973    -0.40400
C1818       C  0.00557327  0.58628708  0.36655105     0.33000
C1819       C  0.00558346  0.66373128  0.33224527     0.01600
F1820       F  0.99531874  0.67439717  0.39395657    -0.12700
F1821       F  0.00932295  0.55783061  0.35681533    -0.13300
C1822       C  0.98475694  0.66608752  0.30896442     0.16500
C1823       C  0.98789778  0.68818332  0.28705120     0.25900
C1824       C  0.01232553  0.70788042  0.28767563    -0.40400
C1825       C  0.03249061  0.70613688  0.31168892     0.32900
C1826       C  0.02897061  0.68449445  0.33389760     0.14600
F1827       F  0.96119075  0.64713972  0.30769572    -0.12700
F1828       F  0.05636210  0.72465749  0.31303022    -0.13200
F1829       F  0.96677507  0.69068455  0.26559265    -0.15500
F1830       F  0.04903789  0.68314901  0.35651859    -0.14100
F1831       F  0.01177700  0.60266210  0.31634781    -0.14100
F1832       F  0.99266102  0.63042319  0.43481881    -0.15500
C1833       C  0.00600004  0.34155074  0.61370116     0.14600
C1834       C  0.00138000  0.34921473  0.64381414     0.01500
C1835       C  0.99565580  0.37918402  0.65109556     0.16500
C1836       C  0.99455279  0.40103648  0.62873292     0.25900
C1837       C  0.99913077  0.39341832  0.59836719    -0.40400
C1838       C  0.00502112  0.36328591  0.59130504     0.33000
C1839       C  0.00301745  0.32593246  0.66749929     0.01600
F1840       F  0.99171032  0.38746431  0.68003005    -0.12700
F1841       F  0.01027067  0.35465345  0.56270786    -0.13300
C1842       C  0.02874524  0.30836244  0.67055243     0.16500
C1843       C  0.03008367  0.28581495  0.69210652     0.25900
C1844       C  0.00599909  0.28073386  0.71147018    -0.40400
C1845       C  0.98033797  0.29831736  0.70863190     0.32900
C1846       C  0.97877024  0.32062731  0.68673692     0.14600
F1847       F  0.05280782  0.31336516  0.65290551    -0.12700
F1848       F  0.95644151  0.29310302  0.72640073    -0.13200
F1849       F  0.05518732  0.26924388  0.69453695    -0.15500
F1850       F  0.95324838  0.33646148  0.68373116    -0.14100
F1851       F  0.01114045  0.31274803  0.60584219    -0.14100
F1852       F  0.98889749  0.42963399  0.63702235    -0.15500
C1853       C  0.01395802  0.64363999  0.61220419     0.14600
C1854       C  0.00805933  0.63688407  0.64222751     0.01500
C1855       C  0.00015830  0.60757040  0.64988664     0.16500
C1856       C  0.99809888  0.58534947  0.62787016     0.25900
C1857       C  0.00377827  0.59204392  0.59752535    -0.40400
C1858       C  0.01182267  0.62159427  0.59011228     0.33000
C1859       C  0.01008952  0.66059062  0.66538214     0.01600
F1860       F  0.99484326  0.60034805  0.67884500    -0.12700
F1861       F  0.01798789  0.62934057  0.56148629    -0.13300
C1862       C  0.98481888  0.66904249  0.68191693     0.16500
C1863       C  0.98653072  0.69242268  0.70272230     0.25900
C1864       C  0.01347559  0.70761283  0.70727458    -0.40400
C1865       C  0.03879189  0.69892486  0.69113258     0.32900
C1866       C  0.03716875  0.67555065  0.67040503     0.14600
F1867       F  0.95835982  0.65510649  0.67737417    -0.12700
F1868       F  0.06527138  0.71261406  0.69620242    -0.13200
F1869       F  0.96180472  0.70076352  0.71796588    -0.15500
F1870       F  0.06213238  0.66717084  0.65553451    -0.14100
F1871       F  0.02140952  0.67186992  0.60416440    -0.14100
F1872       F  0.99027887  0.55737490  0.63642275    -0.15500
C1873       C  0.99002946  0.35076159  0.11795828     0.14600
C1874       C  0.99435681  0.36098802  0.14745253     0.01500
C1875       C  0.00282055  0.39077527  0.15211533     0.16500
C1876       C  0.00671911  0.40996222  0.12791098     0.25900
C1877       C  0.00084307  0.40022150  0.09836967    -0.40400
C1878       C  0.99281413  0.37020839  0.09374767     0.33000
C1879       C  0.99081855  0.34017794  0.17299308     0.01600
F1880       F  0.00662662  0.40164646  0.18020845    -0.12700
F1881       F  0.98707854  0.35961879  0.06589405    -0.13300
C1882       C  0.01373469  0.33666733  0.19420762     0.16500
C1883       C  0.01249537  0.31345462  0.21499552     0.25900
C1884       C  0.98876754  0.29313093  0.21433901    -0.40400
C1885       C  0.96483781  0.29798413  0.19487448     0.32900
C1886       C  0.96555288  0.32167997  0.17477230     0.14600
F1887       F  0.03853246  0.35395877  0.19320814    -0.12700
F1888       F  0.94159875  0.27858739  0.19411129    -0.13200
F1889       F  0.03590249  0.30901727  0.23360253    -0.15500
F1890       F  0.94219873  0.32560616  0.15596702    -0.14100
F1891       F  0.98328583  0.32172307  0.11246071    -0.14100
F1892       F  0.01615857  0.43819723  0.13367329    -0.15500
C1893       C  0.99220508  0.11389242  0.34365175     0.14600
C1894       C  0.00249359  0.14213425  0.35242145     0.01500
C1895       C  0.01161863  0.14714889  0.38181170     0.16500
C1896       C  0.01071908  0.12404811  0.40246223     0.25900
C1897       C  0.00010752  0.09554298  0.39404421    -0.40400
C1898       C  0.99081571  0.09070884  0.36436767     0.33000
C1899       C  0.00381683  0.16649975  0.33082618     0.01600
F1900       F  0.02162149  0.17445445  0.39041031    -0.12700
F1901       F  0.97979581  0.06387421  0.35552104    -0.13300
C1902       C  0.98056332  0.18721714  0.32928092     0.16500
C1903       C  0.98074455  0.20911339  0.30716699     0.25900
C1904       C  0.00430207  0.21040772  0.28661568    -0.40400
C1905       C  0.02824833  0.19048636  0.28919708     0.32900
C1906       C  0.02799696  0.16860474  0.31123325     0.14600
F1907       F  0.95708126  0.18522174  0.34826263    -0.12700
F1908       F  0.05129638  0.19158586  0.26961053    -0.13200
F1909       F  0.95691982  0.22743878  0.30438068    -0.15500
F1910       F  0.05080531  0.14886307  0.31291375    -0.14100
F1911       F  0.98320250  0.10895497  0.31510681    -0.14100
F1912       F  0.02074484  0.12961351  0.43055845    -0.15500
C1913       C  0.99890015  0.33868296  0.38212584     0.14600
C1914       C  0.99745918  0.34630868  0.35176075     0.01500
C1915       C  0.99595443  0.37659050  0.34392665     0.16500
C1916       C  0.99552461  0.39886518  0.36597307     0.25900
C1917       C  0.99672830  0.39142089  0.39664892    -0.40400
C1918       C  0.99839589  0.36084582  0.40430601     0.33000
C1919       C  0.99686970  0.32276610  0.32821089     0.01600
F1920       F  0.99535733  0.38467099  0.31471521    -0.12700
F1921       F  0.99952766  0.35209734  0.43329216    -0.13300
C1922       C  0.97263772  0.32071885  0.30842972     0.16500
C1923       C  0.97227066  0.29918263  0.28569462     0.25900
C1924       C  0.99620233  0.27935170  0.28212188    -0.40400
C1925       C  0.02019112  0.28098490  0.30225579     0.32900
C1926       C  0.02049410  0.30243507  0.32513562     0.14600
F1927       F  0.94906318  0.33936430  0.31144493    -0.12700
F1928       F  0.04384029  0.26249023  0.29909313    -0.13200
F1929       F  0.94823309  0.29728631  0.26746622    -0.15500
F1930       F  0.04429257  0.30393309  0.34374447    -0.14100
F1931       F  0.00025543  0.30959845  0.39039279    -0.14100
F1932       F  0.99386104  0.42771981  0.35701314    -0.15500
loop_ 
_geom_bond_atom_site_label_1 
_geom_bond_atom_site_label_2 
_geom_bond_distance 
_geom_bond_site_symmetry_2 
_ccdc_geom_bond_type 
N1            C5   1.357       .  A
N1            C2   1.357   1_655  A
N1         C1924   1.446       .  S
C2            C3   1.381       .  A
C2         C1904   1.467       .  S
C3            C4   1.369   1_455  A
C3            H6   1.082       .  S
C4            C5   1.381       .  A
C4            H7   1.082       .  S
C5         C1884   1.470       .  S
O8           C19   1.292       .  A
O8          Eu44   2.468       .  S
O9           C20   1.290       .  A
O9          Eu43   2.455       .  S
O10          C21   1.287       .  A
O10         Eu16   2.429       .  S
O11          C22   1.287       .  A
O11         Eu16   2.435   1_455  S
O12          C22   1.294       .  A
O12         Eu46   2.471       .  S
O13          C21   1.296       .  A
O13         Eu45   2.482       .  S
O14          C20   1.293       .  A
O14         Eu16   2.472   1_455  S
O15          C19   1.293       .  A
O15         Eu16   2.471       .  S
Eu16         O26   2.352   1_655  S
Eu16         O18   2.348       .  S
Eu16         O17   2.350   1_655  S
Eu16         O24   2.355       .  S
O17         Eu46   2.359       .  S
O17         Eu43   2.351       .  S
O18         Eu44   2.352       .  S
O18         Eu45   2.361       .  S
C19        C1917   1.502       .  S
C20        C1817   1.498       .  S
C21        C1757   1.486       .  S
C22        C1737   1.490       .  S
H23          O24   0.964       .  S
O24         Eu45   2.354       .  S
O24         Eu43   2.345   1_655  S
H25          O26   0.964       .  S
O26         Eu44   2.354   1_455  S
O26         Eu46   2.363       .  S
O27          C50   1.293       .  A
O27         Eu43   2.469       .  S
O28          C51   1.294       .  A
O28         Eu44   2.476       .  S
O29          C52   1.295       .  A
O29         Eu45   2.482       .  S
O30          C53   1.298       .  A
O30         Eu46   2.499       .  S
O31          C54   1.296       .  A
O31         Eu46   2.483       .  S
O32          C55   1.292       .  A
O32         Eu45   2.461       .  S
O33          C56   1.286       .  A
O33         Eu47   2.426       .  S
O34          C57   1.286       .  A
O34         Eu47   2.426   1_455  S
O35          C56   1.294       .  A
O35         Eu45   2.471       .  S
O36          C57   1.294       .  A
O36         Eu46   2.472       .  S
O37          C52   1.286       .  A
O37         Eu43   2.425   1_655  S
O38          C55   1.290       .  A
O38         Eu44   2.448       .  S
O39          C54   1.290       .  A
O39         Eu44   2.447   1_455  S
O40          C53   1.283       .  A
O40         Eu43   2.411       .  S
O41          C50   1.290       .  A
O41         Eu47   2.457   1_455  S
O42          C51   1.290       .  A
O42         Eu47   2.452       .  S
Eu43         O61   2.342       .  S
Eu43         O49   2.339   1_455  S
Eu44         O48   2.346   1_655  S
Eu44         O59   2.353       .  S
Eu45         O59   2.367       .  S
Eu45         O49   2.350       .  S
Eu46         O48   2.357       .  S
Eu46         O61   2.352       .  S
Eu47         O48   2.341   1_655  S
Eu47         O59   2.349       .  S
Eu47         O61   2.343   1_655  S
Eu47         O49   2.344       .  S
C50        C1857   1.496       .  S
C51        C1837   1.498       .  S
C52        C1717   1.481       .  S
C53        C1664   1.490       .  S
C54        C1697   1.496       .  S
C55        C1684   1.469       .  S
C56        C1797   1.487       .  S
C57        C1784   1.482       .  S
H58          O59   0.965       .  S
H60          O61   0.964       .  S
N62          C66   1.356       .  A
N62          C63   1.357       .  A
N62        C1864   1.438       .  S
C63          C64   1.383       .  A
C63        C1617   1.478       .  S
C64          C65   1.372       .  A
C64          H67   1.082       .  S
C65          C66   1.381       .  A
C65          H68   1.082       .  S
C66        C1637   1.474       .  S
N69          C73   1.356       .  A
N69          C70   1.355       .  A
N69        C1844   1.444       .  S
C70          C71   1.381       .  A
C70        C1604   1.469       .  S
C71          C72   1.369       .  A
C71          H74   1.082       .  S
C72          C73   1.383       .  A
C72          H75   1.082       .  S
C73        C1577   1.471       .  S
N76          C80   1.356       .  A
N76          C77   1.356       .  A
N76        C1824   1.448       .  S
C77          C78   1.380       .  A
C77        C1537   1.463       .  S
C78          C79   1.365       .  A
C78          H81   1.082       .  S
C79          C80   1.381       .  A
C79          H82   1.082       .  S
C80        C1557   1.465       .  S
O83          C94   1.291       .  A
O83        Eu119   2.455   1_545  S
O84          C95   1.296       .  A
O84        Eu118   2.483   1_545  S
O85          C96   1.291       .  A
O85         Eu91   2.466       .  S
O86          C97   1.290       .  A
O86         Eu91   2.453   1_455  S
O87          C97   1.291       .  A
O87        Eu121   2.458   1_545  S
O88          C96   1.294       .  A
O88        Eu120   2.476   1_545  S
O89          C95   1.285       .  A
O89         Eu91   2.421       .  S
O90          C94   1.286       .  A
O90         Eu91   2.424       .  S
Eu91        O101   2.350   1_655  S
Eu91         O93   2.340       .  S
Eu91         O92   2.348   1_655  S
Eu91         O99   2.345       .  S
O92        Eu121   2.346   1_545  S
O92        Eu118   2.353   1_445  S
O93        Eu119   2.357   1_545  S
O93        Eu120   2.345   1_545  S
C94        C1897   1.475   1_655  S
C95        C1597   1.489       .  S
C96        C1497   1.505       .  S
C97        C1517   1.491       .  S
H98          O99   0.965       .  S
O99        Eu120   2.344   1_545  S
O99        Eu118   2.366   1_545  S
H100        O101   0.965       .  S
O101       Eu119   2.359   1_445  S
O101       Eu121   2.351   1_545  S
O102        C125   1.298       .  A
O102       Eu118   2.499       .  S
O103        C126   1.291       .  A
O103       Eu119   2.454       .  S
O104        C127   1.288       .  A
O104       Eu120   2.436       .  S
O105        C128   1.287       .  A
O105       Eu121   2.432       .  S
O106        C129   1.286       .  A
O106       Eu121   2.426       .  S
O107        C130   1.287       .  A
O107       Eu120   2.430       .  S
O108        C131   1.293       .  A
O108       Eu122   2.468       .  S
O109        C132   1.295       .  A
O109       Eu122   2.486   1_455  S
O110        C131   1.291       .  A
O110       Eu120   2.459       .  S
O111        C132   1.293       .  A
O111       Eu121   2.470       .  S
O112        C127   1.295       .  A
O112       Eu118   2.475       .  S
O113        C130   1.297       .  A
O113       Eu119   2.489       .  S
O114        C129   1.297       .  A
O114       Eu119   2.490   1_455  S
O115        C128   1.295       .  A
O115       Eu118   2.481   1_455  S
O116        C125   1.286       .  A
O116       Eu122   2.421       .  S
O117        C126   1.287       .  A
O117       Eu122   2.431       .  S
Eu118       O136   2.361   1_655  S
Eu118       O124   2.360       .  S
Eu119       O123   2.356   1_655  S
Eu119       O134   2.358       .  S
Eu120       O134   2.354       .  S
Eu120       O124   2.354       .  S
Eu121       O123   2.344       .  S
Eu121       O136   2.342       .  S
Eu122       O123   2.342   1_655  S
Eu122       O134   2.349       .  S
Eu122       O136   2.348   1_655  S
Eu122       O124   2.353       .  S
C125       C1644   1.485   1_655  S
C126       C1564   1.483       .  S
C127       C1377   1.485   1_565  S
C128       C1397   1.475       .  S
C129       C1417   1.494       .  S
C130       C1437   1.486       .  S
C131       C1477   1.495       .  S
C132       C1457   1.509       .  S
H133        O134   0.965       .  S
H135        O136   0.965       .  S
N137        C141   1.361       .  A
N137        C138   1.361       .  A
N137       C1524   1.442       .  S
C138        C139   1.382       .  A
C138       C1704   1.484       .  S
C139        C140   1.370       .  A
C139        H142   1.082       .  S
C140        C141   1.381       .  A
C140        H143   1.082       .  S
C141       C1357   1.479       .  S
N144        C148   1.360       .  A
N144        C145   1.361       .  A
N144       C1504   1.449       .  S
C145        C146   1.382       .  A
C145       C1677   1.474       .  S
C146        C147   1.366       .  A
C146        H149   1.082       .  S
C147        C148   1.380       .  A
C147        H150   1.082       .  S
C148       C1337   1.472       .  S
N151        C155   1.355       .  A
N151        C152   1.356       .  A
N151       C1484   1.440       .  S
C152        C153   1.382       .  A
C152       C1317   1.473       .  S
C153        C154   1.372       .  A
C153        H156   1.082       .  S
C154        C155   1.380       .  A
C154        H157   1.082       .  S
C155       C1724   1.470       .  S
N158        C162   1.359       .  A
N158        C159   1.359       .  A
N158       C1464   1.450       .  S
C159        C160   1.380       .  A
C159       C1657   1.468       .  S
C160        C161   1.366       .  A
C160        H163   1.082       .  S
C161        C162   1.382       .  A
C161        H164   1.083       .  S
C162       C1304   1.472       .  S
N165        C169   1.358       .  A
N165        C166   1.360       .  A
N165       C1277   1.446       .  S
C166        C167   1.382       .  A
C166       C1444   1.476       .  S
C167        C168   1.367       .  A
C167        H170   1.082       .  S
C168        C169   1.380       .  A
C168        H171   1.082       .  S
C169       C1257   1.468       .  S
O172        C183   1.294       .  A
O172       Eu208   2.476       .  S
O173        C184   1.297       .  A
O173       Eu207   2.489       .  S
O174        C185   1.294       .  A
O174       Eu180   2.477       .  S
O175        C186   1.293       .  A
O175       Eu180   2.470       .  S
O176        C186   1.291       .  A
O176       Eu210   2.460       .  S
O177        C185   1.295       .  A
O177       Eu209   2.484       .  S
O178        C184   1.284       .  A
O178       Eu180   2.415       .  S
O179        C183   1.288       .  A
O179       Eu180   2.435   1_545  S
Eu180       O190   2.350   1_565  S
Eu180       O182   2.342   1_565  S
Eu180       O181   2.351       .  S
Eu180       O188   2.353       .  S
O181       Eu210   2.351       .  S
O181       Eu207   2.362       .  S
O182       Eu208   2.358       .  S
O182       Eu209   2.346   1_545  S
C183       C1364   1.486       .  S
C184       C1297   1.490       .  S
C185       C1197   1.508       .  S
C186       C1237   1.499       .  S
H187        O188   0.966       .  S
O188       Eu209   2.349       .  S
O188       Eu207   2.362       .  S
H189        O190   0.966       .  S
O190       Eu208   2.357       .  S
O190       Eu210   2.353   1_545  S
O191        C214   1.296       .  A
O191       Eu207   2.484       .  S
O192        C215   1.295       .  A
O192       Eu208   2.476       .  S
O193        C216   1.290       .  A
O193       Eu209   2.446       .  S
O194        C217   1.287       .  A
O194       Eu210   2.434       .  S
O195        C218   1.289       .  A
O195       Eu210   2.445   1_545  S
O196        C219   1.289       .  A
O196       Eu209   2.446   1_545  S
O197        C220   1.293       .  A
O197       Eu211   2.471       .  S
O198        C221   1.294       .  A
O198       Eu211   2.478       .  S
O199        C220   1.293       .  A
O199       Eu209   2.467       .  S
O200        C221   1.291       .  A
O200       Eu210   2.462       .  S
O201        C216   1.295       .  A
O201       Eu207   2.482       .  S
O202        C219   1.293       .  A
O202       Eu208   2.467       .  S
O203        C218   1.294       .  A
O203       Eu208   2.472       .  S
O204        C217   1.297       .  A
O204       Eu207   2.487       .  S
O205        C214   1.284       .  A
O205       Eu211   2.417       .  S
O206        C215   1.285       .  A
O206       Eu211   2.422   1_545  S
Eu207       O225   2.362       .  S
Eu207       O213   2.357       .  S
Eu208       O212   2.354       .  S
Eu208       O223   2.354       .  S
Eu209       O223   2.356   1_565  S
Eu209       O213   2.351       .  S
Eu210       O212   2.345   1_565  S
Eu210       O225   2.356       .  S
Eu211       O212   2.343   1_565  S
Eu211       O223   2.351   1_565  S
Eu211       O225   2.348       .  S
Eu211       O213   2.348       .  S
C214       C1324   1.488       .  S
C215       C1344   1.477       .  S
C216       C1137   1.483       .  S
C217       C1184   1.492       .  S
C218       C1157   1.488       .  S
C219       C1124   1.493       .  S
C220       C1284   1.501       .  S
C221       C1217   1.502       .  S
H222        O223   0.966       .  S
H224        O225   0.966       .  S
N226        C230   1.358       .  A
N226        C227   1.358       .  A
N226       C1244   1.443       .  S
C227        C228   1.382       .  A
C227       C1104   1.475       .  S
C228        C229   1.368       .  A
C228        H231   1.082       .  S
C229        C230   1.381       .  A
C229        H232   1.082       .  S
C230       C1404   1.473   1_545  S
N233        C237   1.358       .  A
N233        C234   1.358       .  A
N233       C1224   1.447       .  S
C234        C235   1.380       .  A
C234       C1384   1.471       .  S
C235        C236   1.369       .  A
C235        H238   1.082       .  S
C236        C237   1.382       .  A
C236        H239   1.082       .  S
C237       C1077   1.473       .  S
N240        C244   1.356       .  A
N240        C241   1.358       .  A
N240       C1204   1.445       .  S
C241        C242   1.382       .  A
C241       C1057   1.472       .  S
C242        C243   1.369       .  A
C242        H245   1.082       .  S
C243        C244   1.381       .  A
C243        H246   1.082       .  S
C244       C1424   1.470       .  S
O247        C258   1.291       .  A
O247       Eu283   2.452   1_554  S
O248        C259   1.294       .  A
O248       Eu282   2.473   1_554  S
O249        C260   1.290       .  A
O249       Eu255   2.455   1_545  S
O250        C261   1.294       .  A
O250       Eu255   2.481       .  S
O251        C261   1.292       .  A
O251       Eu285   2.467   1_554  S
O252        C260   1.296       .  A
O252       Eu284   2.490   1_554  S
O253        C259   1.287       .  A
O253       Eu255   2.432       .  S
O254        C258   1.287       .  A
O254       Eu255   2.430       .  S
Eu255       O265   2.345       .  S
Eu255       O257   2.351   1_565  S
Eu255       O256   2.347       .  S
Eu255       O263   2.356   1_565  S
O256       Eu285   2.346   1_554  S
O256       Eu282   2.364   1_554  S
O257       Eu283   2.355   1_544  S
O257       Eu284   2.344   1_554  S
C258       C1264   1.478   1_565  S
C259       C1064   1.481       .  S
C260       C1044   1.504       .  S
C261       C1017   1.506       .  S
H262        O263   0.964       .  S
O263       Eu284   2.349   1_554  S
O263       Eu282   2.360   1_544  S
H264        O265   0.963       .  S
O265       Eu283   2.363   1_554  S
O265       Eu285   2.346   1_554  S
O266        C289   1.295       .  A
O266       Eu282   2.478       .  S
O267        C290   1.292       .  A
O267       Eu283   2.459       .  S
O268        C291   1.286       .  A
O268       Eu284   2.428       .  S
O269        C292   1.285       .  A
O269       Eu285   2.422       .  S
O270        C293   1.286       .  A
O270       Eu285   2.423       .  S
O271        C294   1.286       .  A
O271       Eu284   2.427       .  S
O272        C295   1.289       .  A
O272       Eu286   2.445   1_545  S
O273        C296   1.292       .  A
O273       Eu286   2.468       .  S
O274        C295   1.294       .  A
O274       Eu284   2.477       .  S
O275        C296   1.291       .  A
O275       Eu285   2.459       .  S
O276        C291   1.296       .  A
O276       Eu282   2.487   1_545  S
O277        C294   1.298       .  A
O277       Eu283   2.496   1_545  S
O278        C293   1.297       .  A
O278       Eu283   2.488       .  S
O279        C292   1.295       .  A
O279       Eu282   2.478       .  S
O280        C289   1.285       .  A
O280       Eu286   2.423       .  S
O281        C290   1.287       .  A
O281       Eu286   2.434       .  S
Eu282       O300   2.359       .  S
Eu282       O288   2.348   1_565  S
Eu283       O287   2.355       .  S
Eu283       O298   2.354   1_565  S
Eu284       O298   2.355       .  S
Eu284       O288   2.344       .  S
Eu285       O287   2.346       .  S
Eu285       O300   2.348       .  S
Eu286       O287   2.337       .  S
Eu286       O298   2.351   1_565  S
Eu286       O300   2.342       .  S
Eu286       O288   2.347   1_565  S
C289       C1097   1.489       .  S
C290       C1084   1.484       .  S
C291        C957   1.494       .  S
C292        C924   1.486       .  S
C293        C937   1.489       .  S
C294        C897   1.496       .  S
C295        C977   1.496       .  S
C296        C997   1.498       .  S
H297        O298   0.964       .  S
H299        O300   0.963       .  S
N301        C305   1.361       .  A
N301        C302   1.359       .  A
N301       C1037   1.445       .  S
C302        C303   1.381       .  A
C302       C1117   1.475       .  S
C303        C304   1.371       .  A
C303        H306   1.082       .  S
C304        C305   1.382       .  A
C304        H307   1.082       .  S
C305        C884   1.480       .  S
N308        C312   1.358       .  A
N308        C309   1.359       .  A
N308       C1024   1.448       .  S
C309        C310   1.382       .  A
C309        C864   1.475       .  S
C310        C311   1.369       .  A
C310        H313   1.082       .  S
C311        C312   1.381       .  A
C311        H314   1.082       .  S
C312       C1144   1.470       .  S
N315        C319   1.353       .  A
N315        C316   1.354       .  A
N315       C1004   1.442       .  S
C316        C317   1.381       .  A
C316        C837   1.469       .  S
C317        C318   1.373       .  A
C317        H320   1.082       .  S
C318        C319   1.381       .  A
C318        H321   1.082       .  S
C319       C1177   1.468       .  S
N322        C326   1.358       .  A
N322        C323   1.357       .  A
N322        C984   1.442       .  S
C323        C324   1.382       .  A
C323       C1164   1.475       .  S
C324        C325   1.371       .  A
C324        H327   1.082       .  S
C325        C326   1.381       .  A
C325        H328   1.082       .  S
C326        C817   1.476       .  S
O329        C340   1.296       .  A
O329       Eu365   2.486   1_454  S
O330        C341   1.295       .  A
O330       Eu364   2.481   1_554  S
O331        C342   1.292       .  A
O331       Eu337   2.466       .  S
O332        C343   1.292       .  A
O332       Eu337   2.463   1_655  S
O333        C343   1.292       .  A
O333       Eu367   2.467   1_554  S
O334        C342   1.293       .  A
O334       Eu366   2.471   1_554  S
O335        C341   1.284       .  A
O335       Eu337   2.416       .  S
O336        C340   1.285       .  A
O336       Eu337   2.419       .  S
Eu337       O347   2.347   1_455  S
Eu337       O339   2.340       .  S
Eu337       O338   2.347   1_455  S
Eu337       O345   2.341       .  S
O338       Eu367   2.346   1_554  S
O338       Eu364   2.359   1_654  S
O339       Eu365   2.356   1_454  S
O339       Eu366   2.345   1_554  S
C340       C1877   1.489       .  S
C341       C1544   1.485       .  S
C342        C784   1.501       .  S
C343        C797   1.499       .  S
H344        O345   0.964       .  S
O345       Eu366   2.349   1_554  S
O345       Eu364   2.362   1_554  S
H346        O347   0.965       .  S
O347       Eu365   2.352   1_554  S
O347       Eu367   2.348   1_554  S
O348        C371   1.295       .  A
O348       Eu364   2.479       .  S
O349        C372   1.294       .  A
O349       Eu365   2.470       .  S
O350        C373   1.287       .  A
O350       Eu366   2.429       .  S
O351        C374   1.287       .  A
O351       Eu367   2.431       .  S
O352        C375   1.287       .  A
O352       Eu367   2.431       .  S
O353        C376   1.288       .  A
O353       Eu366   2.436       .  S
O354        C377   1.291       .  A
O354       Eu368   2.462       .  S
O355        C378   1.292       .  A
O355       Eu368   2.467   1_655  S
O356        C377   1.292       .  A
O356       Eu366   2.464       .  S
O357        C378   1.291       .  A
O357       Eu367   2.460       .  S
O358        C373   1.296       .  A
O358       Eu364   2.481       .  S
O359        C376   1.292       .  A
O359       Eu365   2.460   1_455  S
O360        C375   1.296       .  A
O360       Eu365   2.482       .  S
O361        C374   1.297       .  A
O361       Eu364   2.489   1_655  S
O362        C371   1.287       .  A
O362       Eu368   2.435       .  S
O363        C372   1.288   1_455  A
O363       Eu368   2.440       .  S
Eu364       O382   2.360   1_455  S
Eu364       O370   2.364       .  S
Eu365       O369   2.355       .  S
Eu365       O380   2.363   1_655  S
Eu366       O380   2.348       .  S
Eu366       O370   2.351       .  S
Eu367       O369   2.345       .  S
Eu367       O382   2.351       .  S
Eu368       O369   2.348   1_455  S
Eu368       O380   2.349       .  S
Eu368       O382   2.351   1_455  S
Eu368       O370   2.350       .  S
C371       C1624   1.490       .  S
C372       C1584   1.479       .  S
C373        C697   1.481   1_556  S
C374        C657   1.494       .  S
C375        C677   1.491       .  S
C376        C717   1.475       .  S
C377        C757   1.495       .  S
C378        C737   1.499       .  S
H379        O380   0.964       .  S
H381        O382   0.965       .  S
N383        C387   1.358       .  A
N383        C384   1.358       .  A
N383        C804   1.447       .  S
C384        C385   1.382       .  A
C384        C644   1.471       .  S
C385        C386   1.368       .  A
C385        H388   1.082       .  S
C386        C387   1.380       .  A
C386        H389   1.082       .  S
C387       C1764   1.468       .  S
N390        C394   1.358       .  A
N390        C391   1.357       .  A
N390        C777   1.446       .  S
C391        C392   1.382       .  A
C391        C617   1.471       .  S
C392        C393   1.369       .  A
C392        H395   1.082       .  S
C393        C394   1.380       .  A
C393        H396   1.082       .  S
C394       C1744   1.468       .  S
N397        C401   1.356       .  A
N397        C398   1.355       .  A
N397        C764   1.442       .  S
C398        C399   1.381       .  A
C398       C1777   1.470       .  S
C399        C400   1.372       .  A
C399        H402   1.082       .  S
C400        C401   1.382       .  A
C400        H403   1.082       .  S
C401        C597   1.475       .  S
N404        C408   1.362       .  A
N404        C405   1.361       .  A
N404        C744   1.449       .  S
C405        C406   1.380       .  A
C405       C1804   1.473       .  S
C406        C407   1.366       .  A
C406        H409   1.082       .  S
C407        C408   1.381       .  A
C407        H410   1.082       .  S
C408        C577   1.475       .  S
N411        C415   1.357       .  A
N411        C412   1.353       .  A
N411        C557   1.441       .  S
C412        C413   1.378       .  A
C412        C724   1.462       .  S
C413        C414   1.369       .  A
C413        H416   1.082       .  S
C414        C415   1.383       .  A
C414        H417   1.082       .  S
C415        C964   1.472       .  S
O418        C429   1.299       .  A
O418       Eu454   2.501       .  S
O419        C430   1.296       .  A
O419       Eu453   2.488       .  S
O420        C431   1.290       .  A
O420       Eu426   2.454       .  S
O421        C432   1.293       .  A
O421       Eu426   2.471       .  S
O422        C432   1.289       .  A
O422       Eu456   2.447       .  S
O423        C431   1.293   1_554  A
O423       Eu455   2.469   1_554  S
O424        C430   1.287       .  A
O424       Eu426   2.435       .  S
O425        C429   1.283       .  A
O425       Eu426   2.414   1_554  S
Eu426       O436   2.344   1_556  S
Eu426       O428   2.354   1_556  S
Eu426       O427   2.336       .  S
Eu426       O434   2.343       .  S
O427       Eu456   2.348       .  S
O427       Eu453   2.352       .  S
O428       Eu454   2.351       .  S
O428       Eu455   2.353   1_554  S
C429        C877   1.495       .  S
C430        C824   1.496       .  S
C431        C564   1.490       .  S
C432        C497   1.496       .  S
H433        O434   0.969       .  S
O434       Eu455   2.354       .  S
O434       Eu453   2.349       .  S
H435        O436   0.968       .  S
O436       Eu454   2.361       .  S
O436       Eu456   2.358   1_554  S
O437        C460   1.294       .  A
O437       Eu453   2.470       .  S
O438        C461   1.294       .  A
O438       Eu454   2.473       .  S
O439        C462   1.288       .  A
O439       Eu455   2.434       .  S
O440        C463   1.289       .  A
O440       Eu456   2.441       .  S
O441        C464   1.288       .  A
O441       Eu456   2.440   1_554  S
O442        C465   1.284       .  A
O442       Eu455   2.417   1_554  S
O443        C466   1.291       .  A
O443       Eu457   2.460       .  S
O444        C467   1.293       .  A
O444       Eu457   2.475       .  S
O445        C466   1.295       .  A
O445       Eu455   2.484       .  S
O446        C467   1.294       .  A
O446       Eu456   2.480       .  S
O447        C462   1.297       .  A
O447       Eu453   2.491       .  S
O448        C465   1.298       .  A
O448       Eu454   2.497       .  S
O449        C464   1.294       .  A
O449       Eu454   2.469       .  S
O450        C463   1.295       .  A
O450       Eu453   2.479       .  S
O451        C460   1.286       .  A
O451       Eu457   2.426       .  S
O452        C461   1.287       .  A
O452       Eu457   2.431   1_554  S
Eu453       O471   2.369       .  S
Eu453       O459   2.366       .  S
Eu454       O458   2.368       .  S
Eu454       O469   2.360       .  S
Eu455       O469   2.347   1_556  S
Eu455       O459   2.350       .  S
Eu456       O458   2.339   1_556  S
Eu456       O471   2.345       .  S
Eu457       O458   2.344   1_556  S
Eu457       O469   2.349   1_556  S
Eu457       O471   2.346       .  S
Eu457       O459   2.360       .  S
C460        C844   1.475       .  S
C461        C857   1.479       .  S
C462        C604   1.485       .  S
C463        C584   1.494       .  S
C464        C637   1.491       .  S
C465        C624   1.493       .  S
C466        C517   1.502   1_556  S
C467        C537   1.509       .  S
H468        O469   0.969       .  S
H470        O471   0.969       .  S
N472        C476   1.363       .  A
N472        C473   1.359       .  A
N472        C544   1.450       .  S
C473        C474   1.379       .  A
C473        C944   1.470       .  S
C474        C475   1.368       .  A
C474        H477   1.082       .  S
C475        C476   1.383       .  A
C475        H478   1.082       .  S
C476        C664   1.477       .  S
N479        C483   1.354       .  A
N479        C480   1.353       .  A
N479        C524   1.444       .  S
C480        C481   1.381       .  A
C480        C917   1.466       .  S
C481        C482   1.371       .  A
C481        H484   1.082       .  S
C482        C483   1.381       .  A
C482        H485   1.082       .  S
C483        C704   1.465       .  S
N486        C490   1.357       .  A
N486        C487   1.357   1_556  A
N486        C504   1.443       .  S
C487        C488   1.381       .  A
C487        C684   1.473       .  S
C488        C489   1.372   1_554  A
C488        H491   1.082       .  S
C489        C490   1.381       .  A
C489        H492   1.082       .  S
C490        C904   1.473       .  S
C493        C494   1.405       .  A
C493        C498   1.402       .  A
C493        F511   1.358       .  S
C494        C495   1.402       .  A
C494        C499   1.485       .  S
C495        C496   1.398       .  A
C495        F500   1.358       .  S
C496        C497   1.416       .  A
C496        F512   1.358       .  S
C497        C498   1.414       .  A
C498        F501   1.358       .  S
C499        C502   1.406       .  A
C499        C506   1.407   1_556  A
C502        C503   1.401       .  A
C502        F507   1.358       .  S
C503        C504   1.406       .  A
C503        F509   1.357       .  S
C504        C505   1.405   1_556  A
C505        C506   1.401       .  A
C505        F508   1.357       .  S
C506        F510   1.358       .  S
C513        C514   1.405       .  A
C513        C518   1.401       .  A
C513        F531   1.358       .  S
C514        C515   1.406       .  A
C514        C519   1.493       .  S
C515        C516   1.406   1_554  A
C515        F520   1.358   1_554  S
C516        C517   1.417   1_556  A
C516        F532   1.358       .  S
C517        C518   1.413       .  A
C518        F521   1.357       .  S
C519        C522   1.408       .  A
C519        C526   1.409   1_554  A
C522        C523   1.401       .  A
C522        F527   1.358       .  S
C523        C524   1.405       .  A
C523        F529   1.357       .  S
C524        C525   1.405   1_554  A
C525        C526   1.404       .  A
C525        F528   1.357       .  S
C526        F530   1.357       .  S
C533        C534   1.407       .  A
C533        C538   1.408       .  A
C533        F551   1.358       .  S
C534        C535   1.407       .  A
C534        C539   1.500       .  S
C535        C536   1.405       .  A
C535        F540   1.358       .  S
C536        C537   1.416       .  A
C536        F552   1.358       .  S
C537        C538   1.416       .  A
C538        F541   1.357       .  S
C539        C542   1.410       .  A
C539        C546   1.409   1_556  A
C542        C543   1.408       .  A
C542        F547   1.357       .  S
C543        C544   1.407       .  A
C543        F549   1.357       .  S
C544        C545   1.407   1_556  A
C545        C546   1.404       .  A
C545        F548   1.356       .  S
C546        F550   1.358       .  S
C553        C554   1.410       .  A
C553        C558   1.401       .  A
C553        F571   1.358       .  S
C554        C555   1.408   1_556  A
C554        C559   1.491       .  S
C555        C556   1.403       .  A
C555        F560   1.357       .  S
C556        C557   1.404   1_554  A
C556        F572   1.356       .  S
C557        C558   1.403       .  A
C558        F561   1.357       .  S
C559        C562   1.408   1_556  A
C559        C566   1.406       .  A
C562        C563   1.404       .  A
C562        F567   1.358       .  S
C563        C564   1.411   1_554  A
C563        F569   1.358       .  S
C564        C565   1.411       .  A
C565        C566   1.397       .  A
C565        F568   1.358       .  S
C566        F570   1.358       .  S
C573        C574   1.402       .  A
C573        C578   1.397       .  A
C573        F591   1.358       .  S
C574        C575   1.405       .  A
C574        C579   1.476       .  S
C575        C576   1.402       .  A
C575        F580   1.358       .  S
C576        C577   1.406       .  A
C576        F592   1.358       .  S
C577        C578   1.406       .  A
C578        F581   1.358       .  S
C579        C582   1.396       .  A
C579        C586   1.405       .  A
C582        C583   1.394       .  A
C582        F587   1.358       .  S
C583        C584   1.417       .  A
C583        F589   1.358       .  S
C584        C585   1.414       .  A
C585        C586   1.404       .  A
C585        F588   1.358       .  S
C586        F590   1.358       .  S
C593        C594   1.405       .  A
C593        C598   1.400       .  A
C593        F611   1.358       .  S
C594        C595   1.401       .  A
C594        C599   1.473       .  S
C595        C596   1.396       .  A
C595        F600   1.358       .  S
C596        C597   1.406       .  A
C596        F612   1.358       .  S
C597        C598   1.405       .  A
C598        F601   1.357       .  S
C599        C602   1.399       .  A
C599        C606   1.403       .  A
C602        C603   1.400       .  A
C602        F607   1.358       .  S
C603        C604   1.416       .  A
C603        F609   1.359       .  S
C604        C605   1.407       .  A
C605        C606   1.399       .  A
C605        F608   1.357       .  S
C606        F610   1.358       .  S
C613        C614   1.407       .  A
C613        C618   1.400       .  A
C613        F631   1.358       .  S
C614        C615   1.401       .  A
C614        C619   1.473       .  S
C615        C616   1.393       .  A
C615        F620   1.358       .  S
C616        C617   1.404       .  A
C616        F632   1.358       .  S
C617        C618   1.405       .  A
C618        F621   1.358       .  S
C619        C622   1.395       .  A
C619        C626   1.406       .  A
C622        C623   1.393       .  A
C622        F627   1.358       .  S
C623        C624   1.421       .  A
C623        F629   1.358       .  S
C624        C625   1.410       .  A
C625        C626   1.401       .  A
C625        F628   1.357       .  S
C626        F630   1.358       .  S
C633        C634   1.398       .  A
C633        C638   1.393       .  A
C633        F651   1.358       .  S
C634        C635   1.406       .  A
C634        C639   1.477       .  S
C635        C636   1.401       .  A
C635        F640   1.358       .  S
C636        C637   1.412       .  A
C636        F652   1.358       .  S
C637        C638   1.416       .  A
C638        F641   1.358       .  S
C639        C642   1.403       .  A
C639        C646   1.407       .  A
C642        C643   1.396       .  A
C642        F647   1.358       .  S
C643        C644   1.405       .  A
C643        F649   1.358       .  S
C644        C645   1.403       .  A
C645        C646   1.399       .  A
C645        F648   1.358       .  S
C646        F650   1.358       .  S
C653        C654   1.399       .  A
C653        C658   1.397       .  A
C653        F671   1.358       .  S
C654        C655   1.405       .  A
C654        C659   1.479       .  S
C655        C656   1.402       .  A
C655        F660   1.358   1_556  S
C656        C657   1.411       .  A
C656        F672   1.357   1_556  S
C657        C658   1.418       .  A
C658        F661   1.358       .  S
C659        C662   1.406   1_556  A
C659        C666   1.403       .  A
C662        C663   1.402       .  A
C662        F667   1.357       .  S
C663        C664   1.404   1_554  A
C663        F669   1.357       .  S
C664        C665   1.408       .  A
C665        C666   1.398       .  A
C665        F668   1.358       .  S
C666        F670   1.358       .  S
C673        C674   1.397   1_554  A
C673        C678   1.396   1_554  A
C673        F691   1.358       .  S
C674        C675   1.404       .  A
C674        C679   1.474       .  S
C675        C676   1.401       .  A
C675        F680   1.358       .  S
C676        C677   1.411       .  A
C676        F692   1.358       .  S
C677        C678   1.418       .  A
C678        F681   1.358   1_556  S
C679        C682   1.404       .  A
C679        C686   1.403   1_556  A
C682        C683   1.399       .  A
C682        F687   1.357       .  S
C683        C684   1.404   1_556  A
C683        F689   1.357       .  S
C684        C685   1.405       .  A
C685        C686   1.398       .  A
C685        F688   1.358       .  S
C686        F690   1.358       .  S
C693        C694   1.397       .  A
C693        C698   1.393       .  A
C693        F711   1.358       .  S
C694        C695   1.405   1_554  A
C694        C699   1.470       .  S
C695        C696   1.400       .  A
C695        F700   1.358       .  S
C696        C697   1.407   1_556  A
C696        F712   1.358       .  S
C697        C698   1.413       .  A
C698        F701   1.356       .  S
C699        C702   1.403   1_554  A
C699        C706   1.404       .  A
C702        C703   1.397       .  A
C702        F707   1.358       .  S
C703        C704   1.404   1_556  A
C703        F709   1.358       .  S
C704        C705   1.402       .  A
C705        C706   1.395       .  A
C705        F708   1.358       .  S
C706        F710   1.358       .  S
C713        C714   1.398   1_554  A
C713        C718   1.393       .  A
C713        F731   1.358       .  S
C714        C715   1.403       .  A
C714        C719   1.465       .  S
C715        C716   1.397       .  A
C715        F720   1.358       .  S
C716        C717   1.408       .  A
C716        F732   1.357       .  S
C717        C718   1.411   1_556  A
C718        F721   1.358       .  S
C719        C722   1.401   1_556  A
C719        C726   1.403       .  A
C722        C723   1.394       .  A
C722        F727   1.358       .  S
C723        C724   1.403   1_554  A
C723        F729   1.358       .  S
C724        C725   1.402       .  A
C725        C726   1.397       .  A
C725        F728   1.358       .  S
C726        F730   1.358       .  S
C733        C734   1.404       .  A
C733        C738   1.402       .  A
C733        F751   1.358       .  S
C734        C735   1.403       .  A
C734        C739   1.488       .  S
C735        C736   1.402       .  A
C735        F740   1.358       .  S
C736        C737   1.415       .  A
C736        F752   1.358       .  S
C737        C738   1.414       .  A
C738        F741   1.358       .  S
C739        C742   1.406       .  A
C739        C746   1.405       .  A
C742        C743   1.404       .  A
C742        F747   1.358       .  S
C743        C744   1.410       .  A
C743        F749   1.357       .  S
C744        C745   1.408       .  A
C745        C746   1.402       .  A
C745        F748   1.356       .  S
C746        F750   1.358       .  S
C753        C754   1.406       .  A
C753        C758   1.401       .  A
C753        F771   1.358       .  S
C754        C755   1.406       .  A
C754        C759   1.490       .  S
C755        C756   1.401       .  A
C755        F760   1.358       .  S
C756        C757   1.413       .  A
C756        F772   1.358       .  S
C757        C758   1.413       .  A
C758        F761   1.358       .  S
C759        C762   1.408       .  A
C759        C766   1.409       .  A
C762        C763   1.400       .  A
C762        F767   1.358       .  S
C763        C764   1.405       .  A
C763        F769   1.357       .  S
C764        C765   1.404       .  A
C765        C766   1.401       .  A
C765        F768   1.357       .  S
C766        F770   1.358       .  S
C773        C774   1.409       .  A
C773        C778   1.403       .  A
C773        F791   1.358       .  S
C774        C775   1.409       .  A
C774        C779   1.494       .  S
C775        C776   1.402       .  A
C775        F780   1.358       .  S
C776        C777   1.406       .  A
C776        F792   1.357       .  S
C777        C778   1.406       .  A
C778        F781   1.357       .  S
C779        C782   1.406       .  A
C779        C786   1.407       .  A
C782        C783   1.402       .  A
C782        F787   1.358       .  S
C783        C784   1.414       .  A
C783        F789   1.357       .  S
C784        C785   1.414       .  A
C785        C786   1.403       .  A
C785        F788   1.357       .  S
C786        F790   1.358       .  S
C793        C794   1.406       .  A
C793        C798   1.402       .  A
C793        F811   1.358       .  S
C794        C795   1.406       .  A
C794        C799   1.493       .  S
C795        C796   1.401       .  A
C795        F800   1.358       .  S
C796        C797   1.414       .  A
C796        F812   1.358       .  S
C797        C798   1.415       .  A
C798        F801   1.358       .  S
C799        C802   1.409       .  A
C799        C806   1.408       .  A
C802        C803   1.403       .  A
C802        F807   1.358       .  S
C803        C804   1.406       .  A
C803        F809   1.357       .  S
C804        C805   1.407       .  A
C805        C806   1.402       .  A
C805        F808   1.356       .  S
C806        F810   1.358       .  S
C813        C814   1.405       .  A
C813        C818   1.399       .  A
C813        F831   1.358       .  S
C814        C815   1.406       .  A
C814        C819   1.482       .  S
C815        C816   1.401       .  A
C815        F820   1.357       .  S
C816        C817   1.405       .  A
C816        F832   1.358       .  S
C817        C818   1.406       .  A
C818        F821   1.358       .  S
C819        C822   1.400       .  A
C819        C826   1.405       .  A
C822        C823   1.399       .  A
C822        F827   1.358       .  S
C823        C824   1.418       .  A
C823        F829   1.358       .  S
C824        C825   1.411       .  A
C825        C826   1.402       .  A
C825        F828   1.357       .  S
C826        F830   1.358       .  S
C833        C834   1.406       .  A
C833        C838   1.395       .  A
C833        F851   1.358       .  S
C834        C835   1.406       .  A
C834        C839   1.476       .  S
C835        C836   1.397       .  A
C835        F840   1.358       .  S
C836        C837   1.404       .  A
C836        F852   1.358       .  S
C837        C838   1.402       .  A
C838        F841   1.358       .  S
C839        C842   1.403       .  A
C839        C846   1.406       .  A
C842        C843   1.396       .  A
C842        F847   1.358       .  S
C843        C844   1.412       .  A
C843        F849   1.359       .  S
C844        C845   1.405       .  A
C845        C846   1.395       .  A
C845        F848   1.358       .  S
C846        F850   1.358       .  S
C853        C854   1.403       .  A
C853        C858   1.395       .  A
C853        F871   1.358       .  S
C854        C855   1.407       .  A
C854        C859   1.480       .  S
C855        C856   1.399       .  A
C855        F860   1.358       .  S
C856        C857   1.407       .  A
C856        F872   1.358       .  S
C857        C858   1.411       .  A
C858        F861   1.358       .  S
C859        C862   1.407       .  A
C859        C866   1.405       .  A
C862        C863   1.398       .  A
C862        F867   1.358       .  S
C863        C864   1.405       .  A
C863        F869   1.358       .  S
C864        C865   1.405       .  A
C865        C866   1.397       .  A
C865        F868   1.358       .  S
C866        F870   1.358       .  S
C873        C874   1.406       .  A
C873        C878   1.401       .  A
C873        F891   1.357       .  S
C874        C875   1.399       .  A
C874        C879   1.482       .  S
C875        C876   1.398       .  A
C875        F880   1.358       .  S
C876        C877   1.421       .  A
C876        F892   1.359       .  S
C877        C878   1.409       .  A
C878        F881   1.357       .  S
C879        C882   1.403       .  A
C879        C886   1.407       .  A
C882        C883   1.397       .  A
C882        F887   1.358       .  S
C883        C884   1.406       .  A
C883        F889   1.358       .  S
C884        C885   1.406       .  A
C885        C886   1.403       .  A
C885        F888   1.357       .  S
C886        F890   1.358       .  S
C893        C894   1.399       .  A
C893        C898   1.397       .  A
C893        F911   1.358       .  S
C894        C895   1.407       .  A
C894        C899   1.482       .  S
C895        C896   1.402       .  A
C895        F900   1.358       .  S
C896        C897   1.411       .  A
C896        F912   1.357       .  S
C897        C898   1.419       .  A
C898        F901   1.358       .  S
C899        C902   1.408   1_556  A
C899        C906   1.405       .  A
C902        C903   1.401       .  A
C902        F907   1.358       .  S
C903        C904   1.403   1_554  A
C903        F909   1.358       .  S
C904        C905   1.404       .  A
C905        C906   1.397       .  A
C905        F908   1.358       .  S
C906        F910   1.358       .  S
C913        C914   1.407   1_554  A
C913        C918   1.398       .  A
C913        F931   1.358       .  S
C914        C915   1.402       .  A
C914        C919   1.471       .  S
C915        C916   1.392       .  A
C915        F920   1.358       .  S
C916        C917   1.403   1_556  A
C916        F932   1.358       .  S
C917        C918   1.402       .  A
C918        F921   1.358       .  S
C919        C922   1.397       .  A
C919        C926   1.404       .  A
C922        C923   1.394       .  A
C922        F927   1.358       .  S
C923        C924   1.418       .  A
C923        F929   1.358       .  S
C924        C925   1.409       .  A
C925        C926   1.396       .  A
C925        F928   1.357       .  S
C926        F930   1.358   1_556  S
C933        C934   1.400       .  A
C933        C938   1.396       .  A
C933        F951   1.358       .  S
C934        C935   1.407   1_556  A
C934        C939   1.479       .  S
C935        C936   1.400       .  A
C935        F940   1.358       .  S
C936        C937   1.409   1_554  A
C936        F952   1.358       .  S
C937        C938   1.417       .  A
C938        F941   1.358       .  S
C939        C942   1.407       .  A
C939        C946   1.405   1_556  A
C942        C943   1.399       .  A
C942        F947   1.358       .  S
C943        C944   1.402       .  A
C943        F949   1.358       .  S
C944        C945   1.404   1_556  A
C945        C946   1.397       .  A
C945        F948   1.358       .  S
C946        F950   1.358       .  S
C953        C954   1.397       .  A
C953        C958   1.395       .  A
C953        F971   1.358       .  S
C954        C955   1.405       .  A
C954        C959   1.477       .  S
C955        C956   1.402       .  A
C955        F960   1.358       .  S
C956        C957   1.412       .  A
C956        F972   1.358       .  S
C957        C958   1.419       .  A
C958        F961   1.358       .  S
C959        C962   1.402       .  A
C959        C966   1.406   1_556  A
C962        C963   1.396       .  A
C962        F967   1.358       .  S
C963        C964   1.405       .  A
C963        F969   1.358       .  S
C964        C965   1.405   1_556  A
C965        C966   1.401       .  A
C965        F968   1.357       .  S
C966        F970   1.358       .  S
C973        C974   1.403       .  A
C973        C978   1.399       .  A
C973        F991   1.358       .  S
C974        C975   1.402       .  A
C974        C979   1.483       .  S
C975        C976   1.402       .  A
C975        F980   1.358       .  S
C976        C977   1.418       .  A
C976        F992   1.358       .  S
C977        C978   1.412       .  A
C978        F981   1.358       .  S
C979        C982   1.408       .  A
C979        C986   1.404       .  A
C982        C983   1.405       .  A
C982        F987   1.358       .  S
C983        C984   1.407       .  A
C983        F989   1.357       .  S
C984        C985   1.404       .  A
C985        C986   1.397       .  A
C985        F988   1.357       .  S
C986        F990   1.358       .  S
C993        C994   1.405       .  A
C993        C998   1.403       .  A
C993       F1011   1.358       .  S
C994        C995   1.403       .  A
C994        C999   1.487       .  S
C995        C996   1.399       .  A
C995       F1000   1.358       .  S
C996        C997   1.415       .  A
C996       F1012   1.358       .  S
C997        C998   1.415       .  A
C998       F1001   1.358       .  S
C999       C1002   1.406       .  A
C999       C1006   1.408       .  A
C1002      C1003   1.398       .  A
C1002      F1007   1.358       .  S
C1003      C1004   1.405       .  A
C1003      F1009   1.357       .  S
C1004      C1005   1.405       .  A
C1005      C1006   1.404       .  A
C1005      F1008   1.356       .  S
C1006      F1010   1.357       .  S
C1013      C1014   1.407       .  A
C1013      C1018   1.408       .  A
C1013      F1031   1.358       .  S
C1014      C1015   1.406       .  A
C1014      C1019   1.499       .  S
C1015      C1016   1.403       .  A
C1015      F1020   1.358       .  S
C1016      C1017   1.415       .  A
C1016      F1032   1.358       .  S
C1017      C1018   1.415       .  A
C1018      F1021   1.358       .  S
C1019      C1022   1.412       .  A
C1019      C1026   1.408       .  A
C1022      C1023   1.410       .  A
C1022      F1027   1.357       .  S
C1023      C1024   1.407       .  A
C1023      F1029   1.357       .  S
C1024      C1025   1.405       .  A
C1025      C1026   1.400       .  A
C1025      F1028   1.357       .  S
C1026      F1030   1.358       .  S
C1033      C1034   1.407       .  A
C1033      C1038   1.400       .  A
C1033      F1051   1.358       .  S
C1034      C1035   1.409       .  A
C1034      C1039   1.492       .  S
C1035      C1036   1.405       .  A
C1035      F1040   1.358       .  S
C1036      C1037   1.407       .  A
C1036      F1052   1.357       .  S
C1037      C1038   1.405       .  A
C1038      F1041   1.357       .  S
C1039      C1042   1.406       .  A
C1039      C1046   1.404       .  A
C1042      C1043   1.404       .  A
C1042      F1047   1.358       .  S
C1043      C1044   1.413       .  A
C1043      F1049   1.357       .  S
C1044      C1045   1.418       .  A
C1045      C1046   1.403       .  A
C1045      F1048   1.358       .  S
C1046      F1050   1.358       .  S
C1053      C1054   1.408   1_545  A
C1053      C1058   1.400       .  A
C1053      F1071   1.358       .  S
C1054      C1055   1.407       .  A
C1054      C1059   1.483       .  S
C1055      C1056   1.395       .  A
C1055      F1060   1.358       .  S
C1056      C1057   1.403       .  A
C1056      F1072   1.358       .  S
C1057      C1058   1.404   1_565  A
C1058      F1061   1.358       .  S
C1059      C1062   1.404   1_565  A
C1059      C1066   1.408       .  A
C1062      C1063   1.397       .  A
C1062      F1067   1.358       .  S
C1063      C1064   1.412   1_545  A
C1063      F1069   1.359       .  S
C1064      C1065   1.407       .  A
C1065      C1066   1.397       .  A
C1065      F1068   1.358       .  S
C1066      F1070   1.358       .  S
C1073      C1074   1.408   1_545  A
C1073      C1078   1.400       .  A
C1073      F1091   1.358       .  S
C1074      C1075   1.402       .  A
C1074      C1079   1.475       .  S
C1075      C1076   1.393       .  A
C1075      F1080   1.358       .  S
C1076      C1077   1.406   1_565  A
C1076      F1092   1.358       .  S
C1077      C1078   1.403       .  A
C1078      F1081   1.357       .  S
C1079      C1082   1.399       .  A
C1079      C1086   1.406   1_565  A
C1082      C1083   1.394       .  A
C1082      F1087   1.358       .  S
C1083      C1084   1.414       .  A
C1083      F1089   1.358       .  S
C1084      C1085   1.410   1_565  A
C1085      C1086   1.397       .  A
C1085      F1088   1.358       .  S
C1086      F1090   1.358       .  S
C1093      C1094   1.406       .  A
C1093      C1098   1.397       .  A
C1093      F1111   1.358       .  S
C1094      C1095   1.400       .  A
C1094      C1099   1.479       .  S
C1095      C1096   1.395       .  A
C1095      F1100   1.358       .  S
C1096      C1097   1.418   1_545  A
C1096      F1112   1.358   1_545  S
C1097      C1098   1.409   1_565  A
C1098      F1101   1.358       .  S
C1099      C1102   1.404       .  A
C1099      C1106   1.407   1_545  A
C1102      C1103   1.394       .  A
C1102      F1107   1.358       .  S
C1103      C1104   1.406       .  A
C1103      F1109   1.358       .  S
C1104      C1105   1.405   1_545  A
C1105      C1106   1.398       .  A
C1105      F1108   1.356       .  S
C1106      F1110   1.358       .  S
C1113      C1114   1.411       .  A
C1113      C1118   1.402       .  A
C1113      F1131   1.358       .  S
C1114      C1115   1.406       .  A
C1114      C1119   1.486       .  S
C1115      C1116   1.396       .  A
C1115      F1120   1.358       .  S
C1116      C1117   1.404       .  A
C1116      F1132   1.358       .  S
C1117      C1118   1.403       .  A
C1118      F1121   1.357       .  S
C1119      C1122   1.402       .  A
C1119      C1126   1.408       .  A
C1122      C1123   1.397       .  A
C1122      F1127   1.358       .  S
C1123      C1124   1.416       .  A
C1123      F1129   1.358       .  S
C1124      C1125   1.412       .  A
C1125      C1126   1.400       .  A
C1125      F1128   1.358       .  S
C1126      F1130   1.358       .  S
C1133      C1134   1.400       .  A
C1133      C1138   1.399       .  A
C1133      F1151   1.358       .  S
C1134      C1135   1.404       .  A
C1134      C1139   1.475       .  S
C1135      C1136   1.401       .  A
C1135      F1140   1.358       .  S
C1136      C1137   1.408       .  A
C1136      F1152   1.358       .  S
C1137      C1138   1.411       .  A
C1138      F1141   1.357       .  S
C1139      C1142   1.406       .  A
C1139      C1146   1.402       .  A
C1142      C1143   1.401       .  A
C1142      F1147   1.357       .  S
C1143      C1144   1.402       .  A
C1143      F1149   1.358       .  S
C1144      C1145   1.406       .  A
C1145      C1146   1.396       .  A
C1145      F1148   1.358       .  S
C1146      F1150   1.358       .  S
C1153      C1154   1.405       .  A
C1153      C1158   1.400       .  A
C1153      F1171   1.358       .  S
C1154      C1155   1.399       .  A
C1154      C1159   1.477       .  S
C1155      C1156   1.398       .  A
C1155      F1160   1.358       .  S
C1156      C1157   1.415       .  A
C1156      F1172   1.358       .  S
C1157      C1158   1.411       .  A
C1158      F1161   1.358       .  S
C1159      C1162   1.406       .  A
C1159      C1166   1.402       .  A
C1162      C1163   1.401       .  A
C1162      F1167   1.358       .  S
C1163      C1164   1.404       .  A
C1163      F1169   1.357       .  S
C1164      C1165   1.406       .  A
C1165      C1166   1.396       .  A
C1165      F1168   1.358       .  S
C1166      F1170   1.358       .  S
C1173      C1174   1.403       .  A
C1173      C1178   1.395       .  A
C1173      F1191   1.358       .  S
C1174      C1175   1.407       .  A
C1174      C1179   1.476       .  S
C1175      C1176   1.401       .  A
C1175      F1180   1.358       .  S
C1176      C1177   1.402       .  A
C1176      F1192   1.358       .  S
C1177      C1178   1.403       .  A
C1178      F1181   1.358       .  S
C1179      C1182   1.398       .  A
C1179      C1186   1.404       .  A
C1182      C1183   1.397       .  A
C1182      F1187   1.358       .  S
C1183      C1184   1.418       .  A
C1183      F1189   1.358       .  S
C1184      C1185   1.411       .  A
C1185      C1186   1.400       .  A
C1185      F1188   1.357       .  S
C1186      F1190   1.358       .  S
C1193      C1194   1.407       .  A
C1193      C1198   1.405       .  A
C1193      F1211   1.358       .  S
C1194      C1195   1.407       .  A
C1194      C1199   1.499       .  S
C1195      C1196   1.407       .  A
C1195      F1200   1.358       .  S
C1196      C1197   1.416       .  A
C1196      F1212   1.357   1_565  S
C1197      C1198   1.415       .  A
C1198      F1201   1.357       .  S
C1199      C1202   1.409       .  A
C1199      C1206   1.411   1_565  A
C1202      C1203   1.403       .  A
C1202      F1207   1.358       .  S
C1203      C1204   1.404       .  A
C1203      F1209   1.357       .  S
C1204      C1205   1.405   1_565  A
C1205      C1206   1.407       .  A
C1205      F1208   1.357       .  S
C1206      F1210   1.357       .  S
C1213      C1214   1.406       .  A
C1213      C1218   1.405       .  A
C1213      F1231   1.358       .  S
C1214      C1215   1.405       .  A
C1214      C1219   1.493   1_565  S
C1215      C1216   1.402       .  A
C1215      F1220   1.358   1_565  S
C1216      C1217   1.414       .  A
C1216      F1232   1.357       .  S
C1217      C1218   1.416       .  A
C1218      F1221   1.358       .  S
C1219      C1222   1.409   1_545  A
C1219      C1226   1.408       .  A
C1222      C1223   1.405       .  A
C1222      F1227   1.357       .  S
C1223      C1224   1.406   1_565  A
C1223      F1229   1.356       .  S
C1224      C1225   1.407       .  A
C1225      C1226   1.401       .  A
C1225      F1228   1.357       .  S
C1226      F1230   1.358       .  S
C1233      C1234   1.403       .  A
C1233      C1238   1.402       .  A
C1233      F1251   1.358       .  S
C1234      C1235   1.402       .  A
C1234      C1239   1.484       .  S
C1235      C1236   1.401       .  A
C1235      F1240   1.358       .  S
C1236      C1237   1.415       .  A
C1236      F1252   1.358       .  S
C1237      C1238   1.417       .  A
C1238      F1241   1.358       .  S
C1239      C1242   1.405   1_565  A
C1239      C1246   1.406       .  A
C1242      C1243   1.401       .  A
C1242      F1247   1.358       .  S
C1243      C1244   1.405       .  A
C1243      F1249   1.357       .  S
C1244      C1245   1.406   1_545  A
C1245      C1246   1.403       .  A
C1245      F1248   1.357       .  S
C1246      F1250   1.358       .  S
C1253      C1254   1.404   1_565  A
C1253      C1258   1.399       .  A
C1253      F1271   1.358       .  S
C1254      C1255   1.399       .  A
C1254      C1259   1.465       .  S
C1255      C1256   1.393       .  A
C1255      F1260   1.358       .  S
C1256      C1257   1.405   1_545  A
C1256      F1272   1.358       .  S
C1257      C1258   1.404       .  A
C1258      F1261   1.358       .  S
C1259      C1262   1.397       .  A
C1259      C1266   1.403   1_545  A
C1262      C1263   1.393       .  A
C1262      F1267   1.358       .  S
C1263      C1264   1.413       .  A
C1263      F1269   1.358       .  S
C1264      C1265   1.410   1_545  A
C1265      C1266   1.396       .  A
C1265      F1268   1.358       .  S
C1266      F1270   1.358       .  S
C1273      C1274   1.409   1_545  A
C1273      C1278   1.405       .  A
C1273      F1291   1.358       .  S
C1274      C1275   1.408       .  A
C1274      C1279   1.492       .  S
C1275      C1276   1.401       .  A
C1275      F1280   1.358       .  S
C1276      C1277   1.405       .  A
C1276      F1292   1.357       .  S
C1277      C1278   1.407   1_565  A
C1278      F1281   1.357       .  S
C1279      C1282   1.405       .  A
C1279      C1286   1.406       .  A
C1282      C1283   1.402       .  A
C1282      F1287   1.358   1_565  S
C1283      C1284   1.415       .  A
C1283      F1289   1.358   1_565  S
C1284      C1285   1.414       .  A
C1285      C1286   1.403       .  A
C1285      F1288   1.358       .  S
C1286      F1290   1.358       .  S
C1293      C1294   1.397       .  A
C1293      C1298   1.393       .  A
C1293      F1311   1.358       .  S
C1294      C1295   1.406       .  A
C1294      C1299   1.475       .  S
C1295      C1296   1.399       .  A
C1295      F1300   1.358       .  S
C1296      C1297   1.409       .  A
C1296      F1312   1.357       .  S
C1297      C1298   1.420       .  A
C1298      F1301   1.358       .  S
C1299      C1302   1.403       .  A
C1299      C1306   1.406       .  A
C1302      C1303   1.393       .  A
C1302      F1307   1.358       .  S
C1303      C1304   1.406       .  A
C1303      F1309   1.358       .  S
C1304      C1305   1.404       .  A
C1305      C1306   1.398       .  A
C1305      F1308   1.357       .  S
C1306      F1310   1.358       .  S
C1313      C1314   1.405       .  A
C1313      C1318   1.400       .  A
C1313      F1331   1.358       .  S
C1314      C1315   1.401       .  A
C1314      C1319   1.473       .  S
C1315      C1316   1.395       .  A
C1315      F1320   1.358       .  S
C1316      C1317   1.406       .  A
C1316      F1332   1.358       .  S
C1317      C1318   1.405       .  A
C1318      F1321   1.357       .  S
C1319      C1322   1.397       .  A
C1319      C1326   1.404       .  A
C1322      C1323   1.394       .  A
C1322      F1327   1.358       .  S
C1323      C1324   1.418       .  A
C1323      F1329   1.359       .  S
C1324      C1325   1.409       .  A
C1325      C1326   1.399       .  A
C1325      F1328   1.357       .  S
C1326      F1330   1.358       .  S
C1333      C1334   1.404       .  A
C1333      C1338   1.400       .  A
C1333      F1351   1.358       .  S
C1334      C1335   1.401       .  A
C1334      C1339   1.471       .  S
C1335      C1336   1.396       .  A
C1335      F1340   1.358       .  S
C1336      C1337   1.406       .  A
C1336      F1352   1.358       .  S
C1337      C1338   1.404       .  A
C1338      F1341   1.357       .  S
C1339      C1342   1.399       .  A
C1339      C1346   1.404       .  A
C1342      C1343   1.397       .  A
C1342      F1347   1.358       .  S
C1343      C1344   1.412       .  A
C1343      F1349   1.358       .  S
C1344      C1345   1.406       .  A
C1345      C1346   1.397       .  A
C1345      F1348   1.358       .  S
C1346      F1350   1.357       .  S
C1353      C1354   1.406       .  A
C1353      C1358   1.404       .  A
C1353      F1371   1.358       .  S
C1354      C1355   1.401       .  A
C1354      C1359   1.477       .  S
C1355      C1356   1.398       .  A
C1355      F1360   1.358       .  S
C1356      C1357   1.407       .  A
C1356      F1372   1.358       .  S
C1357      C1358   1.405       .  A
C1358      F1361   1.357       .  S
C1359      C1362   1.398       .  A
C1359      C1366   1.406       .  A
C1362      C1363   1.396       .  A
C1362      F1367   1.358       .  S
C1363      C1364   1.414       .  A
C1363      F1369   1.358       .  S
C1364      C1365   1.409       .  A
C1365      C1366   1.402       .  A
C1365      F1368   1.358       .  S
C1366      F1370   1.358       .  S
C1373      C1374   1.402   1_565  A
C1373      C1378   1.397       .  A
C1373      F1391   1.358       .  S
C1374      C1375   1.407       .  A
C1374      C1379   1.481       .  S
C1375      C1376   1.399       .  A
C1375      F1380   1.358       .  S
C1376      C1377   1.409       .  A
C1376      F1392   1.358       .  S
C1377      C1378   1.413   1_545  A
C1378      F1381   1.358       .  S
C1379      C1382   1.407   1_545  A
C1379      C1386   1.406       .  A
C1382      C1383   1.399       .  A
C1382      F1387   1.358       .  S
C1383      C1384   1.404   1_565  A
C1383      F1389   1.358       .  S
C1384      C1385   1.403       .  A
C1385      C1386   1.397       .  A
C1385      F1388   1.358       .  S
C1386      F1390   1.358       .  S
C1393      C1394   1.401       .  A
C1393      C1398   1.396       .  A
C1393      F1411   1.358       .  S
C1394      C1395   1.406   1_565  A
C1394      C1399   1.475       .  S
C1395      C1396   1.401       .  A
C1395      F1400   1.358       .  S
C1396      C1397   1.406   1_545  A
C1396      F1412   1.358       .  S
C1397      C1398   1.409       .  A
C1398      F1401   1.358       .  S
C1399      C1402   1.406   1_565  A
C1399      C1406   1.402       .  A
C1402      C1403   1.402       .  A
C1402      F1407   1.358       .  S
C1403      C1404   1.405   1_545  A
C1403      F1409   1.358       .  S
C1404      C1405   1.405       .  A
C1405      C1406   1.395       .  A
C1405      F1408   1.358       .  S
C1406      F1410   1.358       .  S
C1413      C1414   1.407       .  A
C1413      C1418   1.401       .  A
C1413      F1431   1.358       .  S
C1414      C1415   1.398       .  A
C1414      C1419   1.479       .  S
C1415      C1416   1.395       .  A
C1415      F1420   1.358   1_565  S
C1416      C1417   1.419       .  A
C1416      F1432   1.358   1_565  S
C1417      C1418   1.411       .  A
C1418      F1421   1.358       .  S
C1419      C1422   1.403   1_565  A
C1419      C1426   1.409       .  A
C1422      C1423   1.394       .  A
C1422      F1427   1.358       .  S
C1423      C1424   1.404   1_545  A
C1423      F1429   1.358       .  S
C1424      C1425   1.402       .  A
C1425      C1426   1.401       .  A
C1425      F1428   1.358       .  S
C1426      F1430   1.358       .  S
C1433      C1434   1.405   1_545  A
C1433      C1438   1.402       .  A
C1433      F1451   1.358       .  S
C1434      C1435   1.397       .  A
C1434      C1439   1.473       .  S
C1435      C1436   1.395       .  A
C1435      F1440   1.358       .  S
C1436      C1437   1.414       .  A
C1436      F1452   1.357       .  S
C1437      C1438   1.408   1_565  A
C1438      F1441   1.358       .  S
C1439      C1442   1.401       .  A
C1439      C1446   1.404   1_565  A
C1442      C1443   1.395       .  A
C1442      F1447   1.358       .  S
C1443      C1444   1.407       .  A
C1443      F1449   1.358       .  S
C1444      C1445   1.406   1_565  A
C1445      C1446   1.401       .  A
C1445      F1448   1.357       .  S
C1446      F1450   1.357       .  S
C1453      C1454   1.406       .  A
C1453      C1458   1.406       .  A
C1453      F1471   1.358       .  S
C1454      C1455   1.406       .  A
C1454      C1459   1.497       .  S
C1455      C1456   1.406       .  A
C1455      F1460   1.358       .  S
C1456      C1457   1.417       .  A
C1456      F1472   1.358       .  S
C1457      C1458   1.416       .  A
C1458      F1461   1.357       .  S
C1459      C1462   1.408       .  A
C1459      C1466   1.409       .  A
C1462      C1463   1.403       .  A
C1462      F1467   1.357       .  S
C1463      C1464   1.407       .  A
C1463      F1469   1.357       .  S
C1464      C1465   1.408       .  A
C1465      C1466   1.406       .  A
C1465      F1468   1.357       .  S
C1466      F1470   1.358       .  S
C1473      C1474   1.405       .  A
C1473      C1478   1.400       .  A
C1473      F1491   1.358       .  S
C1474      C1475   1.405       .  A
C1474      C1479   1.487       .  S
C1475      C1476   1.402       .  A
C1475      F1480   1.358       .  S
C1476      C1477   1.414       .  A
C1476      F1492   1.357       .  S
C1477      C1478   1.412       .  A
C1478      F1481   1.358       .  S
C1479      C1482   1.407       .  A
C1479      C1486   1.408       .  A
C1482      C1483   1.400       .  A
C1482      F1487   1.358       .  S
C1483      C1484   1.403       .  A
C1483      F1489   1.356       .  S
C1484      C1485   1.404       .  A
C1485      C1486   1.403       .  A
C1485      F1488   1.357       .  S
C1486      F1490   1.358       .  S
C1493      C1494   1.405       .  A
C1493      C1498   1.406       .  A
C1493      F1511   1.358       .  S
C1494      C1495   1.405       .  A
C1494      C1499   1.493       .  S
C1495      C1496   1.403       .  A
C1495      F1500   1.358       .  S
C1496      C1497   1.415       .  A
C1496      F1512   1.357       .  S
C1497      C1498   1.417       .  A
C1498      F1501   1.358       .  S
C1499      C1502   1.408       .  A
C1499      C1506   1.407       .  A
C1502      C1503   1.407       .  A
C1502      F1507   1.358       .  S
C1503      C1504   1.409       .  A
C1503      F1509   1.357       .  S
C1504      C1505   1.406       .  A
C1505      C1506   1.402       .  A
C1505      F1508   1.356       .  S
C1506      F1510   1.358       .  S
C1513      C1514   1.407       .  A
C1513      C1518   1.400       .  A
C1513      F1531   1.358       .  S
C1514      C1515   1.405       .  A
C1514      C1519   1.488       .  S
C1515      C1516   1.398       .  A
C1515      F1520   1.358       .  S
C1516      C1517   1.412       .  A
C1516      F1532   1.358       .  S
C1517      C1518   1.413       .  A
C1518      F1521   1.358       .  S
C1519      C1522   1.407       .  A
C1519      C1526   1.409       .  A
C1522      C1523   1.399       .  A
C1522      F1527   1.358       .  S
C1523      C1524   1.405       .  A
C1523      F1529   1.357       .  S
C1524      C1525   1.405       .  A
C1525      C1526   1.401       .  A
C1525      F1528   1.357       .  S
C1526      F1530   1.358       .  S
C1533      C1534   1.400   1_655  A
C1533      C1538   1.390       .  A
C1533      F1551   1.358       .  S
C1534      C1535   1.407       .  A
C1534      C1539   1.470       .  S
C1535      C1536   1.400       .  A
C1535      F1540   1.358       .  S
C1536      C1537   1.402       .  A
C1536      F1552   1.358       .  S
C1537      C1538   1.403   1_455  A
C1538      F1541   1.358       .  S
C1539      C1542   1.406       .  A
C1539      C1546   1.395   1_455  A
C1542      C1543   1.400       .  A
C1542      F1547   1.358       .  S
C1543      C1544   1.409       .  A
C1543      F1549   1.358       .  S
C1544      C1545   1.418   1_455  A
C1545      C1546   1.391       .  A
C1545      F1548   1.358       .  S
C1546      F1550   1.358       .  S
C1553      C1554   1.401       .  A
C1553      C1558   1.391       .  A
C1553      F1571   1.358       .  S
C1554      C1555   1.403   1_455  A
C1554      C1559   1.463       .  S
C1555      C1556   1.396       .  A
C1555      F1560   1.358       .  S
C1556      C1557   1.405   1_655  A
C1556      F1572   1.358       .  S
C1557      C1558   1.403       .  A
C1558      F1561   1.358       .  S
C1559      C1562   1.401       .  A
C1559      C1566   1.396       .  A
C1562      C1563   1.396       .  A
C1562      F1567   1.358       .  S
C1563      C1564   1.413   1_455  A
C1563      F1569   1.358   1_455  S
C1564      C1565   1.416       .  A
C1565      C1566   1.391   1_655  A
C1565      F1568   1.358       .  S
C1566      F1570   1.358       .  S
C1573      C1574   1.404   1_455  A
C1573      C1578   1.399       .  A
C1573      F1591   1.357       .  S
C1574      C1575   1.400       .  A
C1574      C1579   1.469       .  S
C1575      C1576   1.393       .  A
C1575      F1580   1.358       .  S
C1576      C1577   1.406   1_655  A
C1576      F1592   1.358       .  S
C1577      C1578   1.404       .  A
C1578      F1581   1.357       .  S
C1579      C1582   1.398       .  A
C1579      C1586   1.403   1_655  A
C1582      C1583   1.396       .  A
C1582      F1587   1.358       .  S
C1583      C1584   1.412       .  A
C1583      F1589   1.358       .  S
C1584      C1585   1.408   1_655  A
C1585      C1586   1.398       .  A
C1585      F1588   1.357       .  S
C1586      F1590   1.358       .  S
C1593      C1594   1.403       .  A
C1593      C1598   1.394       .  A
C1593      F1611   1.358       .  S
C1594      C1595   1.398   1_455  A
C1594      C1599   1.472       .  S
C1595      C1596   1.397       .  A
C1595      F1600   1.358       .  S
C1596      C1597   1.420       .  A
C1596      F1612   1.358       .  S
C1597      C1598   1.409   1_655  A
C1598      F1601   1.357       .  S
C1599      C1602   1.403       .  A
C1599      C1606   1.405   1_455  A
C1602      C1603   1.392       .  A
C1602      F1607   1.358       .  S
C1603      C1604   1.403       .  A
C1603      F1609   1.358       .  S
C1604      C1605   1.405   1_455  A
C1605      C1606   1.399       .  A
C1605      F1608   1.358       .  S
C1606      F1610   1.358       .  S
C1613      C1614   1.402   1_655  A
C1613      C1618   1.396       .  A
C1613      F1631   1.358       .  S
C1614      C1615   1.406       .  A
C1614      C1619   1.477       .  S
C1615      C1616   1.401       .  A
C1615      F1620   1.358       .  S
C1616      C1617   1.406       .  A
C1616      F1632   1.356       .  S
C1617      C1618   1.406   1_455  A
C1618      F1621   1.358       .  S
C1619      C1622   1.398   1_455  A
C1619      C1626   1.405       .  A
C1622      C1623   1.396       .  A
C1622      F1627   1.358       .  S
C1623      C1624   1.416   1_655  A
C1623      F1629   1.358       .  S
C1624      C1625   1.410       .  A
C1625      C1626   1.401       .  A
C1625      F1628   1.358       .  S
C1626      F1630   1.358       .  S
C1633      C1634   1.404       .  A
C1633      C1638   1.399       .  A
C1633      F1651   1.358       .  S
C1634      C1635   1.404   1_455  A
C1634      C1639   1.478       .  S
C1635      C1636   1.401       .  A
C1635      F1640   1.358       .  S
C1636      C1637   1.405   1_655  A
C1636      F1652   1.357       .  S
C1637      C1638   1.405       .  A
C1638      F1641   1.358       .  S
C1639      C1642   1.398       .  A
C1639      C1646   1.408   1_455  A
C1642      C1643   1.394       .  A
C1642      F1647   1.358       .  S
C1643      C1644   1.415       .  A
C1643      F1649   1.358       .  S
C1644      C1645   1.406   1_455  A
C1645      C1646   1.404       .  A
C1645      F1648   1.357       .  S
C1646      F1650   1.358       .  S
C1653      C1654   1.406       .  A
C1653      C1658   1.400       .  A
C1653      F1671   1.358       .  S
C1654      C1655   1.401       .  A
C1654      C1659   1.471       .  S
C1655      C1656   1.394       .  A
C1655      F1660   1.358       .  S
C1656      C1657   1.405       .  A
C1656      F1672   1.358       .  S
C1657      C1658   1.403       .  A
C1658      F1661   1.358       .  S
C1659      C1662   1.404       .  A
C1659      C1666   1.396       .  A
C1662      C1663   1.400       .  A
C1662      F1667   1.357       .  S
C1663      C1664   1.409       .  A
C1663      F1669   1.357       .  S
C1664      C1665   1.420       .  A
C1665      C1666   1.394       .  A
C1665      F1668   1.358       .  S
C1666      F1670   1.359       .  S
C1673      C1674   1.404       .  A
C1673      C1678   1.399       .  A
C1673      F1691   1.357       .  S
C1674      C1675   1.403       .  A
C1674      C1679   1.474       .  S
C1675      C1676   1.396       .  A
C1675      F1680   1.358       .  S
C1676      C1677   1.407       .  A
C1676      F1692   1.359       .  S
C1677      C1678   1.404       .  A
C1678      F1681   1.357       .  S
C1679      C1682   1.402       .  A
C1679      C1686   1.407       .  A
C1682      C1683   1.395       .  A
C1682      F1687   1.358       .  S
C1683      C1684   1.405       .  A
C1683      F1689   1.358       .  S
C1684      C1685   1.405       .  A
C1685      C1686   1.401       .  A
C1685      F1688   1.358       .  S
C1686      F1690   1.358       .  S
C1693      C1694   1.405       .  A
C1693      C1698   1.402       .  A
C1693      F1711   1.358       .  S
C1694      C1695   1.400       .  A
C1694      C1699   1.481       .  S
C1695      C1696   1.400       .  A
C1695      F1700   1.358       .  S
C1696      C1697   1.417       .  A
C1696      F1712   1.357       .  S
C1697      C1698   1.412       .  A
C1698      F1701   1.358       .  S
C1699      C1702   1.402       .  A
C1699      C1706   1.406       .  A
C1702      C1703   1.398       .  A
C1702      F1707   1.358       .  S
C1703      C1704   1.407       .  A
C1703      F1709   1.358       .  S
C1704      C1705   1.407       .  A
C1705      C1706   1.403       .  A
C1705      F1708   1.357       .  S
C1706      F1710   1.358       .  S
C1713      C1714   1.401       .  A
C1713      C1718   1.398       .  A
C1713      F1731   1.358       .  S
C1714      C1715   1.407       .  A
C1714      C1719   1.480       .  S
C1715      C1716   1.399       .  A
C1715      F1720   1.358       .  S
C1716      C1717   1.405       .  A
C1716      F1732   1.358       .  S
C1717      C1718   1.413       .  A
C1718      F1721   1.359       .  S
C1719      C1722   1.405       .  A
C1719      C1726   1.406       .  A
C1722      C1723   1.397       .  A
C1722      F1727   1.358       .  S
C1723      C1724   1.403       .  A
C1723      F1729   1.358       .  S
C1724      C1725   1.404       .  A
C1725      C1726   1.400       .  A
C1725      F1728   1.358       .  S
C1726      F1730   1.358       .  S
C1733      C1734   1.406       .  A
C1733      C1738   1.400       .  A
C1733      F1751   1.358       .  S
C1734      C1735   1.399       .  A
C1734      C1739   1.478       .  S
C1735      C1736   1.394       .  A
C1735      F1740   1.358       .  S
C1736      C1737   1.416       .  A
C1736      F1752   1.358       .  S
C1737      C1738   1.412       .  A
C1738      F1741   1.358       .  S
C1739      C1742   1.404       .  A
C1739      C1746   1.408       .  A
C1742      C1743   1.396       .  A
C1742      F1747   1.358       .  S
C1743      C1744   1.404       .  A
C1743      F1749   1.358       .  S
C1744      C1745   1.401       .  A
C1745      C1746   1.398       .  A
C1745      F1748   1.358       .  S
C1746      F1750   1.358       .  S
C1753      C1754   1.397       .  A
C1753      C1758   1.395       .  A
C1753      F1771   1.358       .  S
C1754      C1755   1.403       .  A
C1754      C1759   1.469       .  S
C1755      C1756   1.400       .  A
C1755      F1760   1.358       .  S
C1756      C1757   1.410       .  A
C1756      F1772   1.358       .  S
C1757      C1758   1.416       .  A
C1758      F1761   1.358       .  S
C1759      C1762   1.401       .  A
C1759      C1766   1.404       .  A
C1762      C1763   1.395       .  A
C1762      F1767   1.358       .  S
C1763      C1764   1.405       .  A
C1763      F1769   1.358       .  S
C1764      C1765   1.403       .  A
C1765      C1766   1.399       .  A
C1765      F1768   1.358       .  S
C1766      F1770   1.357       .  S
C1773      C1774   1.402       .  A
C1773      C1778   1.396       .  A
C1773      F1791   1.358       .  S
C1774      C1775   1.403       .  A
C1774      C1779   1.468       .  S
C1775      C1776   1.398       .  A
C1775      F1780   1.358       .  S
C1776      C1777   1.404       .  A
C1776      F1792   1.358       .  S
C1777      C1778   1.404       .  A
C1778      F1781   1.358       .  S
C1779      C1782   1.402       .  A
C1779      C1786   1.397       .  A
C1782      C1783   1.398       .  A
C1782      F1787   1.358       .  S
C1783      C1784   1.409       .  A
C1783      F1789   1.358       .  S
C1784      C1785   1.416       .  A
C1785      C1786   1.394       .  A
C1785      F1788   1.358       .  S
C1786      F1790   1.358       .  S
C1793      C1794   1.399       .  A
C1793      C1798   1.394       .  A
C1793      F1811   1.358       .  S
C1794      C1795   1.406       .  A
C1794      C1799   1.478       .  S
C1795      C1796   1.399       .  A
C1795      F1800   1.358       .  S
C1796      C1797   1.410       .  A
C1796      F1812   1.358       .  S
C1797      C1798   1.417       .  A
C1798      F1801   1.358       .  S
C1799      C1802   1.402       .  A
C1799      C1806   1.409       .  A
C1802      C1803   1.393       .  A
C1802      F1807   1.358       .  S
C1803      C1804   1.406       .  A
C1803      F1809   1.358       .  S
C1804      C1805   1.403       .  A
C1805      C1806   1.402       .  A
C1805      F1808   1.357       .  S
C1806      F1810   1.358       .  S
C1813      C1814   1.405       .  A
C1813      C1818   1.403       .  A
C1813      F1831   1.358       .  S
C1814      C1815   1.402   1_455  A
C1814      C1819   1.485       .  S
C1815      C1816   1.399       .  A
C1815      F1820   1.358       .  S
C1816      C1817   1.416   1_655  A
C1816      F1832   1.358       .  S
C1817      C1818   1.414       .  A
C1818      F1821   1.358       .  S
C1819      C1822   1.406   1_455  A
C1819      C1826   1.405       .  A
C1822      C1823   1.403       .  A
C1822      F1827   1.358       .  S
C1823      C1824   1.408   1_655  A
C1823      F1829   1.356       .  S
C1824      C1825   1.409       .  A
C1825      C1826   1.400       .  A
C1825      F1828   1.357       .  S
C1826      F1830   1.358       .  S
C1833      C1834   1.406       .  A
C1833      C1838   1.401       .  A
C1833      F1851   1.358       .  S
C1834      C1835   1.406   1_455  A
C1834      C1839   1.492       .  S
C1835      C1836   1.404       .  A
C1835      F1840   1.358       .  S
C1836      C1837   1.416       .  A
C1836      F1852   1.358       .  S
C1837      C1838   1.412   1_655  A
C1838      F1841   1.357       .  S
C1839      C1842   1.408       .  A
C1839      C1846   1.409   1_455  A
C1842      C1843   1.401       .  A
C1842      F1847   1.358       .  S
C1843      C1844   1.405       .  A
C1843      F1849   1.357       .  S
C1844      C1845   1.405   1_455  A
C1845      C1846   1.404       .  A
C1845      F1848   1.357       .  S
C1846      F1850   1.357       .  S
C1853      C1854   1.404       .  A
C1853      C1858   1.399       .  A
C1853      F1871   1.358       .  S
C1854      C1855   1.404       .  A
C1854      C1859   1.485       .  S
C1855      C1856   1.402   1_455  A
C1855      F1860   1.358   1_455  S
C1856      C1857   1.415   1_655  A
C1856      F1872   1.358       .  S
C1857      C1858   1.413       .  A
C1858      F1861   1.357       .  S
C1859      C1862   1.408   1_455  A
C1859      C1866   1.407       .  A
C1862      C1863   1.402       .  A
C1862      F1867   1.358       .  S
C1863      C1864   1.403   1_655  A
C1863      F1869   1.357       .  S
C1864      C1865   1.403       .  A
C1865      C1866   1.399       .  A
C1865      F1868   1.357       .  S
C1866      F1870   1.358       .  S
C1873      C1874   1.410       .  A
C1873      C1878   1.398       .  A
C1873      F1891   1.358       .  S
C1874      C1875   1.403   1_655  A
C1874      C1879   1.486       .  S
C1875      C1876   1.396       .  A
C1875      F1880   1.358       .  S
C1876      C1877   1.416       .  A
C1876      F1892   1.358       .  S
C1877      C1878   1.407   1_455  A
C1878      F1881   1.358       .  S
C1879      C1882   1.411   1_655  A
C1879      C1886   1.407       .  A
C1882      C1883   1.399       .  A
C1882      F1887   1.357       .  S
C1883      C1884   1.402   1_455  A
C1883      F1889   1.358       .  S
C1884      C1885   1.402       .  A
C1885      C1886   1.394       .  A
C1885      F1888   1.358       .  S
C1886      F1890   1.358       .  S
C1893      C1894   1.402   1_655  A
C1893      C1898   1.396       .  A
C1893      F1911   1.358       .  S
C1894      C1895   1.396       .  A
C1894      C1899   1.462       .  S
C1895      C1896   1.391       .  A
C1895      F1900   1.358       .  S
C1896      C1897   1.413       .  A
C1896      F1912   1.358       .  S
C1897      C1898   1.409   1_455  A
C1898      F1901   1.358       .  S
C1899      C1902   1.402   1_455  A
C1899      C1906   1.400       .  A
C1902      C1903   1.396       .  A
C1902      F1907   1.358       .  S
C1903      C1904   1.404   1_655  A
C1903      F1909   1.357       .  S
C1904      C1905   1.405       .  A
C1905      C1906   1.393       .  A
C1905      F1908   1.358       .  S
C1906      F1910   1.358       .  S
C1913      C1914   1.404       .  A
C1913      C1918   1.403       .  A
C1913      F1931   1.358   1_655  S
C1914      C1915   1.405       .  A
C1914      C1919   1.490       .  S
C1915      C1916   1.402       .  A
C1915      F1920   1.358       .  S
C1916      C1917   1.415       .  A
C1916      F1932   1.358       .  S
C1917      C1918   1.416       .  A
C1918      F1921   1.358       .  S
C1919      C1922   1.407       .  A
C1919      C1926   1.408   1_655  A
C1922      C1923   1.401       .  A
C1922      F1927   1.358       .  S
C1923      C1924   1.406       .  A
C1923      F1929   1.357       .  S
C1924      C1925   1.407   1_655  A
C1925      C1926   1.403       .  A
C1925      F1928   1.357       .  S
C1926      F1930   1.358       .  S
