geometry optimzed in LAMMPS
_audit_creation_date              2020-11-30 
_audit_creation_method            'lammps2cif' 
_symmetry_space_group_name_H-M    'P1' 
_symmetry_Int_Tables_number       1 
_symmetry_cell_setting            triclinic 
loop_ 
_symmetry_equiv_pos_as_xyz 
  x,y,z 
_cell_length_a                    32.56954907434507 
_cell_length_b                    44.8372876178685 
_cell_length_c                    48.41736625479352 
_cell_angle_alpha                 90.0984267703508 
_cell_angle_beta                  89.99798287672633 
_cell_angle_gamma                 90.07556436999968 
loop_ 
_atom_site_label 
_atom_site_type_symbol 
_atom_site_fract_x 
_atom_site_fract_y 
_atom_site_fract_z 
_atom_site_charge 
N1          N  0.69945152  0.07027878  0.15044708    -0.25570
N2          N  0.68350048  0.09605481  0.15832377    -0.33430
C3          C  0.65065449  0.09083778  0.17442949     0.02770
C4          C  0.64582631  0.06040577  0.17673640     0.08800
C5          C  0.67711547  0.04793541  0.16136335    -0.04300
H6          H  0.63167408  0.10796314  0.18365055     0.09460
H7          H  0.68315237  0.02444454  0.15823848     0.10660
Cu8        Cu  0.70633937  0.13731224  0.14681298     0.44170
Cu9        Cu  0.75053077  0.06678420  0.12504868     0.41990
Cu10       Cu  0.79450093  0.13727775  0.10271801     0.43880
N11         N  0.73369186  0.17600403  0.13248098    -0.32950
N12         N  0.76625134  0.17599749  0.11620250    -0.27210
C13         C  0.77653197  0.20433414  0.11029224    -0.03310
C14         C  0.74905600  0.22304477  0.12350208     0.08910
C15         C  0.72232208  0.20434178  0.13739314     0.02700
H16         H  0.80203120  0.21077903  0.09726563     0.10350
H17         H  0.69642806  0.21079095  0.15006072     0.09430
N18         N  0.81729501  0.09593237  0.09138607    -0.34400
N19         N  0.80139021  0.07020145  0.09943916    -0.26580
C20         C  0.82332995  0.04779111  0.08828416    -0.01820
C21         C  0.85432064  0.06015819  0.07257145     0.06790
C22         C  0.84972010  0.09060927  0.07492277     0.04880
H23         H  0.81709324  0.02432006  0.09135856     0.09990
H24         H  0.86842839  0.10767468  0.06535982     0.08820
O25         O  0.04077199  0.98660697  0.46030889    -0.71220
O26         O  0.95473161  0.02879455  0.00516663    -0.72200
O27         O  0.04191775  0.02878924  0.00418378    -0.60820
O28         O  0.95358089  0.98660667  0.46127775    -0.69230
O29         O  0.95423284  0.94954483  0.49170494    -0.68790
O30         O  0.04259572  0.99173911  0.03462284    -0.60040
O31         O  0.95537600  0.99174048  0.03560079    -0.72550
O32         O  0.04143404  0.94954309  0.49073346    -0.71330
Cu33       Cu  0.99772424  0.00899835  0.48166177     1.04560
Cu34       Cu  0.99843237  0.96933864  0.01424173     1.04330
C35         C  0.05454673  0.96149542  0.46850081     0.94980
C36         C  0.94161786  0.01685771  0.02740487     0.94110
C37         C  0.05606844  0.01684220  0.02611355     0.86260
C38         C  0.94010719  0.96149934  0.46976900     0.92530
N39         N  0.19941850  0.07002689  0.09558170    -0.25570
N40         N  0.18348915  0.09575648  0.08764845    -0.33430
C41         C  0.15064698  0.09045763  0.07154800     0.02770
C42         C  0.14579434  0.06001278  0.06930323     0.08800
C43         C  0.17707166  0.04762414  0.08470774    -0.04300
H44         H  0.13169176  0.10753657  0.06228423     0.09460
H45         H  0.18309485  0.02415016  0.08787792     0.10660
Cu46       Cu  0.20641409  0.13704030  0.09908258     0.44170
Cu47       Cu  0.25049650  0.06675298  0.12099182     0.41990
Cu48       Cu  0.29456010  0.13749542  0.14318050     0.43880
N49         N  0.23371212  0.17587354  0.11320772    -0.32950
N50         N  0.26626559  0.17608146  0.12948944    -0.27210
C51         C  0.27648696  0.20450243  0.13519976    -0.03310
C52         C  0.24897075  0.22302867  0.12184776     0.08910
C53         C  0.22228726  0.20413524  0.10809313     0.02700
H54         H  0.30197703  0.21113142  0.14817531     0.10350
H55         H  0.19639342  0.21040379  0.09536933     0.09430
N56         N  0.31727224  0.09617688  0.15458414    -0.34400
N57         N  0.30135164  0.07039709  0.14658802    -0.26580
C58         C  0.32328313  0.04805027  0.15778505    -0.01820
C59         C  0.35428088  0.06050504  0.17346502     0.06790
C60         C  0.34970015  0.09094159  0.17105144     0.04880
H61         H  0.31703749  0.02456219  0.15475695     0.09990
H62         H  0.36842920  0.10805728  0.18057149     0.08820
N63         N  0.79695823  0.90870919  0.39987895    -0.25570
N64         N  0.81281522  0.88292701  0.40772694    -0.33430
C65         C  0.84561464  0.88810937  0.42389621     0.02770
C66         C  0.85051642  0.91853583  0.42627954     0.08800
C67         C  0.81931344  0.93103555  0.41088052    -0.04300
H68         H  0.86449115  0.87096400  0.43312731     0.09460
H69         H  0.81333124  0.95453158  0.40781571     0.10660
Cu70       Cu  0.78980262  0.84173652  0.39612788     0.44170
Cu71       Cu  0.74591598  0.91212118  0.37445076     0.41990
Cu72       Cu  0.70166971  0.84147330  0.35201954     0.43880
N73         N  0.76245976  0.80297319  0.38191032    -0.32950
N74         N  0.72991092  0.80281505  0.36562408    -0.27210
C75         C  0.71966724  0.77440478  0.35986958    -0.03310
C76         C  0.74716755  0.75584279  0.37319906     0.08910
C77         C  0.77385928  0.77470081  0.38698353     0.02700
H78         H  0.69417157  0.76780632  0.34688585     0.10350
H79         H  0.79974004  0.76840176  0.39970645     0.09430
N80         N  0.67904408  0.88288535  0.34077981    -0.34400
N81         N  0.69503056  0.90861327  0.34886454    -0.26580
C82         C  0.67310573  0.93103622  0.33779303    -0.01820
C83         C  0.64203948  0.91869192  0.32210267     0.06790
C84         C  0.64657653  0.88823667  0.32437732     0.04880
H85         H  0.67938656  0.95450319  0.34092814     0.09990
H86         H  0.62777341  0.87118723  0.31482139     0.08820
O87         O  0.54143622  0.95009297  0.25500007    -0.71220
O88         O  0.45539101  0.99227763  0.21030144    -0.72200
O89         O  0.54259203  0.99228831  0.21127868    -0.60820
O90         O  0.45424689  0.95008562  0.25402971    -0.69230
O91         O  0.45355863  0.98711717  0.28460618    -0.68790
O92         O  0.54191941  0.02932823  0.24184751    -0.60040
O93         O  0.45471869  0.02932283  0.24086395    -0.72550
O94         O  0.54078942  0.98712603  0.28557520    -0.71330
Cu95       Cu  0.49843973  0.96988678  0.23157532     1.04560
Cu96       Cu  0.49771987  0.00952685  0.26430389     1.04330
C97         C  0.55456762  0.96202467  0.27727208     0.94980
C98         C  0.44161264  0.01738298  0.21858663     0.94110
C99         C  0.55607200  0.01738295  0.21987773     0.86260
C100        C  0.44009258  0.96201764  0.27600421     0.92530
N101        N  0.19490141  0.90859875  0.39631552    -0.25570
N102        N  0.17907023  0.88282019  0.40429671    -0.33430
C103        C  0.14664278  0.88803086  0.42078329     0.02770
C104        C  0.14195816  0.91846220  0.42322957     0.08800
C105        C  0.17290387  0.93093744  0.40754497    -0.04300
H106        H  0.12799277  0.87090133  0.43029926     0.09460
H107        H  0.17907137  0.95442919  0.40454306     0.10660
Cu108      Cu  0.20196842  0.84156552  0.39284579     0.44170
Cu109      Cu  0.24575106  0.91211093  0.37070724     0.41990
Cu110      Cu  0.29011779  0.84162662  0.34874531     0.43880
N111        N  0.23019578  0.80288172  0.37930243    -0.32950
N112        N  0.26275026  0.80289439  0.36301955    -0.27210
C113        C  0.27409114  0.77455712  0.35806738    -0.03310
C114        C  0.24734405  0.75584185  0.37193662     0.08910
C115        C  0.21988999  0.77454221  0.38517619     0.02700
H116        H  0.29997473  0.76811436  0.34538775     0.10350
H117        H  0.19438828  0.76809022  0.39819798     0.09430
N118        N  0.31285760  0.88297457  0.33735573    -0.34400
N119        N  0.29683967  0.90870543  0.34530493    -0.26580
C120        C  0.31912096  0.93111691  0.33445982    -0.01820
C121        C  0.35044935  0.91874942  0.31905612     0.06790
C122        C  0.34569879  0.88829877  0.32127024     0.04880
H123        H  0.31301944  0.95458791  0.33765534     0.09990
H124        H  0.36473014  0.87123413  0.31200011     0.08820
N125        N  0.69873484  0.57005532  0.34609967    -0.25570
N126        N  0.68275120  0.59579165  0.33823464    -0.33430
C127        C  0.64996702  0.59050522  0.32207676     0.02770
C128        C  0.64520846  0.56006154  0.31972263     0.08800
C129        C  0.67648221  0.54766090  0.33512304    -0.04300
H130        H  0.63099895  0.60759149  0.31283658     0.09460
H131        H  0.68257888  0.52418382  0.33820949     0.10660
Cu132      Cu  0.70556352  0.63706733  0.34980414     0.44170
Cu133      Cu  0.74979388  0.56676254  0.37152550     0.41990
Cu134      Cu  0.79370321  0.63749121  0.39390471     0.43880
N135        N  0.73279159  0.67589139  0.36401856    -0.32950
N136        N  0.76534361  0.67608680  0.38030166    -0.27210
C137        C  0.77553971  0.70450256  0.38605501    -0.03310
C138        C  0.74800924  0.72303941  0.37272909     0.08910
C139        C  0.72134250  0.70415701  0.35894602     0.02700
H140        H  0.80103483  0.71112094  0.39903071     0.10350
H141        H  0.69545596  0.71043607  0.34622001     0.09430
N142        N  0.81652525  0.59616406  0.40517626    -0.34400
N143        N  0.80066191  0.57039032  0.39711173    -0.26580
C144        C  0.82268656  0.54803500  0.40821057    -0.01820
C145        C  0.85368385  0.56047846  0.42389778     0.06790
C146        C  0.84900796  0.59091649  0.42159066     0.04880
H147        H  0.81651674  0.52454883  0.40510005     0.09990
H148        H  0.86772180  0.60802465  0.43113588     0.08820
N149        N  0.69549295  0.40860455  0.14676727    -0.25570
N150        N  0.67972135  0.38283254  0.15481884    -0.33430
C151        C  0.64724541  0.38805612  0.17125805     0.02770
C152        C  0.64246872  0.41848889  0.17359885     0.08800
C153        C  0.67340833  0.43095195  0.15790213    -0.04300
H154        H  0.62861671  0.37093484  0.18080550     0.09460
H155        H  0.67950403  0.45444126  0.15482004     0.10660
Cu156      Cu  0.70273865  0.34157141  0.14350301     0.44170
Cu157      Cu  0.74635284  0.41209993  0.12117131     0.41990
Cu158      Cu  0.79089340  0.34160611  0.09940761     0.43880
N159        N  0.73105733  0.30288245  0.13006332    -0.32950
N160        N  0.76361391  0.30288532  0.11378241    -0.27210
C161        C  0.77500393  0.27454676  0.10888960    -0.03310
C162        C  0.74828640  0.25584118  0.12279547     0.08910
C163        C  0.72079904  0.27454826  0.13599515     0.02700
H164        H  0.80089086  0.26809653  0.09621635     0.10350
H165        H  0.69529712  0.26810447  0.14902024     0.09430
N166        N  0.81351340  0.38294575  0.08788770    -0.34400
N167        N  0.79743154  0.40868055  0.09576616    -0.26580
C168        C  0.81962476  0.43108651  0.08483123    -0.01820
C169        C  0.85096345  0.41871114  0.06944312     0.06790
C170        C  0.84630978  0.38826174  0.07175887     0.04880
H171        H  0.81344768  0.45455935  0.08794722     0.09990
H172        H  0.86536774  0.37119294  0.06252026     0.08820
N173        N  0.19871100  0.57026215  0.39968116    -0.25570
N174        N  0.18270814  0.59603410  0.40752126    -0.33430
C175        C  0.14992745  0.59080885  0.42368466     0.02770
C176        C  0.14519623  0.56037583  0.42606758     0.08800
C177        C  0.17647491  0.54791328  0.41067940    -0.04300
H178        H  0.13094045  0.60792917  0.43290757     0.09460
H179        H  0.18258726  0.52442378  0.40761376     0.10660
Cu180      Cu  0.20543415  0.63729716  0.39592620     0.44170
Cu181      Cu  0.24976605  0.56678037  0.37426069     0.41990
Cu182      Cu  0.29358536  0.63728887  0.35182819     0.43880
N183        N  0.23273088  0.67599760  0.38156514    -0.32950
N184        N  0.26528790  0.67600060  0.36528460    -0.27210
C185        C  0.27556159  0.70434047  0.35938188    -0.03310
C186        C  0.24808475  0.72304358  0.37260027     0.08910
C187        C  0.22135566  0.70433241  0.38648641     0.02700
H188        H  0.30107192  0.71079315  0.34636840     0.10350
H189        H  0.19547633  0.71077461  0.39917059     0.09430
N190        N  0.31648853  0.59595075  0.34057807    -0.34400
N191        N  0.30063996  0.57021515  0.34866821    -0.26580
C192        C  0.32267863  0.54781189  0.33759064    -0.01820
C193        C  0.35367394  0.56018916  0.32188977     0.06790
C194        C  0.34897521  0.59063800  0.32416756     0.04880
H195        H  0.31652105  0.52433894  0.34072312     0.09990
H196        H  0.36767399  0.60770878  0.31460442     0.08820
O197        O  0.95507216  0.49223083  0.46034801    -0.71220
O198        O  0.04147536  0.45004062  0.00472278    -0.72200
O199        O  0.95428100  0.45003539  0.00407325    -0.60820
O200        O  0.04227645  0.49223907  0.46100092    -0.69230
O201        O  0.04185426  0.52927670  0.49157444    -0.68790
O202        O  0.95384122  0.48706384  0.03465545    -0.60040
O203        O  0.04107693  0.48707112  0.03530317    -0.72550
O204        O  0.95465053  0.52927244  0.49091709    -0.71330
Cu205      Cu  0.99829114  0.46983693  0.48145907     1.04560
Cu206      Cu  0.99783855  0.50947406  0.01419371     1.04330
C207        C  0.94136303  0.51733513  0.46868776     0.94980
C208        C  0.05478612  0.46197042  0.02694727     0.94110
C209        C  0.94030316  0.46196653  0.02609921     0.86260
C210        C  0.05582399  0.51733422  0.46955013     0.92530
O211        O  0.45465674  0.52885264  0.25486507    -0.71220
O212        O  0.54105661  0.48666643  0.21032975    -0.72200
O213        O  0.45386318  0.48666178  0.21097796    -0.60820
O214        O  0.54185249  0.52885243  0.25420813    -0.69230
O215        O  0.54228374  0.49180348  0.28465031    -0.68790
O216        O  0.45427313  0.44960301  0.24141057    -0.60040
O217        O  0.54147403  0.44960495  0.24075962    -0.72550
O218        O  0.45505689  0.49180070  0.28530410    -0.71330
Cu219      Cu  0.49784026  0.50905789  0.23152271     1.04560
Cu220      Cu  0.49828661  0.46940046  0.26410775     1.04330
C221        C  0.44136076  0.51691458  0.27705348     0.94980
C222        C  0.55476045  0.46155420  0.21857259     0.94110
C223        C  0.44032469  0.46155378  0.21942172     0.86260
C224        C  0.55582533  0.51690682  0.27619073     0.92530
N225        N  0.29761791  0.40871072  0.14915713    -0.25570
N226        N  0.31353795  0.38293480  0.15696440    -0.33430
C227        C  0.34628421  0.38813006  0.17317883     0.02770
C228        C  0.35108479  0.41855865  0.17563363     0.08800
C229        C  0.31987725  0.43104591  0.16023053    -0.04300
H230        H  0.36518106  0.37099236  0.18240333     0.09460
H231        H  0.31381488  0.45453973  0.15722281     0.10660
Cu232      Cu  0.29064294  0.34173778  0.14528128     0.44170
Cu233      Cu  0.24658850  0.41210284  0.12371805     0.41990
Cu234      Cu  0.20250228  0.34144300  0.10117687     0.43880
N235        N  0.26337097  0.30296706  0.13102094    -0.32950
N236        N  0.23082016  0.30279672  0.11473653    -0.27210
C237        C  0.22060543  0.27438290  0.10897409    -0.03310
C238        C  0.24812614  0.25583180  0.12229749     0.08910
C239        C  0.27480068  0.27469949  0.13608510     0.02700
H240        H  0.19510285  0.26777450  0.09600078     0.10350
H241        H  0.30067756  0.26841006  0.14881566     0.09430
N242        N  0.17975849  0.38284793  0.09002574    -0.34400
N243        N  0.19568779  0.40857968  0.09815086    -0.26580
C244        C  0.17366872  0.43099718  0.08715579    -0.01820
C245        C  0.14260133  0.41864509  0.07147279     0.06750
C246        C  0.14723392  0.38819125  0.07367248     0.04880
H247        H  0.17987471  0.45446565  0.09034849     0.09990
H248        H  0.12844524  0.37113766  0.06411004     0.08820
C249        C  0.40885680  0.44655305  0.20395057    -0.11550
C250        C  0.38240022  0.43394217  0.19097983    -0.13110
C251        C  0.08572129  0.44693273  0.04277207    -0.11550
C252        C  0.11174182  0.43418971  0.05594748    -0.13110
C253        C  0.11383706  0.54496175  0.44129612    -0.11550
C254        C  0.08733679  0.53233049  0.45416792    -0.13110
C255        C  0.38448855  0.54467626  0.30624253    -0.11550
C256        C  0.41046723  0.53195622  0.29296639    -0.13110
C257        C  0.61164854  0.43390358  0.18931732    -0.11550
C258        C  0.58565826  0.44654216  0.20264592    -0.13110
C259        C  0.90879891  0.44693962  0.04146900    -0.11550
C260        C  0.88231443  0.43422510  0.05428839    -0.13110
C261        C  0.91046424  0.53235903  0.45282294    -0.11550
C262        C  0.88448657  0.54503204  0.43955375    -0.13110
C263        C  0.61383743  0.54458698  0.30450147    -0.11550
C264        C  0.58733506  0.53191557  0.29162101    -0.13110
C265        C  0.38189871  0.93426969  0.30399802    -0.11550
C266        C  0.40847277  0.94698778  0.29126500    -0.13110
C267        C  0.61129532  0.93424331  0.30647741    -0.11550
C268        C  0.58537731  0.94698823  0.29321092    -0.13110
C269        C  0.38496857  0.04507007  0.18923541    -0.11550
C270        C  0.41084173  0.03240410  0.20260422    -0.13110
C271        C  0.88194841  0.93390535  0.44152976    -0.11550
C272        C  0.90851057  0.94650504  0.45441183    -0.13110
C273        C  0.08770278  0.03185030  0.04142532    -0.11550
C274        C  0.11430799  0.04452785  0.05420237    -0.13110
C275        C  0.08533202  0.94649065  0.45246587    -0.11550
C276        C  0.11123520  0.93386358  0.43904901    -0.13110
C277        C  0.61433582  0.04499986  0.19184906    -0.11550
C278        C  0.58771994  0.03237409  0.20461723    -0.13110
C279        C  0.88500462  0.04463467  0.05681417    -0.11550
C280        C  0.91086481  0.03190616  0.04343856    -0.13110
N281        N  0.69945151  0.07027879  0.65044709    -0.25570
N282        N  0.68350046  0.09605482  0.65832376    -0.33430
C283        C  0.65065448  0.09083779  0.67442949     0.02770
C284        C  0.64582631  0.06040578  0.67673642     0.08800
C285        C  0.67711548  0.04793542  0.66136337    -0.04300
H286        H  0.63167406  0.10796315  0.68365054     0.09460
H287        H  0.68315238  0.02444455  0.65823852     0.10660
Cu288      Cu  0.70633932  0.13731225  0.64681296     0.44170
Cu289      Cu  0.75053075  0.06678421  0.62504868     0.41990
Cu290      Cu  0.79450091  0.13727775  0.60271800     0.43880
N291        N  0.73369182  0.17600403  0.63248097    -0.32950
N292        N  0.76625132  0.17599750  0.61620249    -0.27210
C293        C  0.77653196  0.20433414  0.61029224    -0.03310
C294        C  0.74905599  0.22304478  0.62350208     0.08910
C295        C  0.72232205  0.20434179  0.63739313     0.02700
H296        H  0.80203120  0.21077903  0.59726564     0.10350
H297        H  0.69642802  0.21079095  0.65006070     0.09430
N298        N  0.81729498  0.09593238  0.59138605    -0.34400
N299        N  0.80139019  0.07020145  0.59943915    -0.26580
C300        C  0.82332992  0.04779112  0.58828415    -0.01820
C301        C  0.85432061  0.06015819  0.57257144     0.06790
C302        C  0.84972008  0.09060928  0.57492276     0.04880
H303        H  0.81709321  0.02432007  0.59135856     0.09990
H304        H  0.86842836  0.10767469  0.56535981     0.08820
O305        O  0.04077198  0.98660696  0.96030888    -0.71220
O306        O  0.95473161  0.02879455  0.50516664    -0.72200
O307        O  0.04191775  0.02878924  0.50418380    -0.60820
O308        O  0.95358088  0.98660666  0.96127774    -0.69230
O309        O  0.95423284  0.94954482  0.99170495    -0.68790
O310        O  0.04259571  0.99173911  0.53462285    -0.60040
O311        O  0.95537599  0.99174048  0.53560080    -0.72550
O312        O  0.04143403  0.94954308  0.99073346    -0.71330
Cu313      Cu  0.99772423  0.00899834  0.98166176     1.04560
Cu314      Cu  0.99843237  0.96933865  0.51424174     1.04330
C315        C  0.05454672  0.96149540  0.96850081     0.94980
C316        C  0.94161785  0.01685771  0.52740487     0.94110
C317        C  0.05606844  0.01684220  0.52611357     0.86260
C318        C  0.94010719  0.96149933  0.96976900     0.92530
N319        N  0.19941852  0.07002690  0.59558171    -0.25570
N320        N  0.18348916  0.09575648  0.58764847    -0.33430
C321        C  0.15064698  0.09045763  0.57154802     0.02770
C322        C  0.14579435  0.06001278  0.56930325     0.08800
C323        C  0.17707168  0.04762414  0.58470775    -0.04300
H324        H  0.13169176  0.10753656  0.56228425     0.09460
H325        H  0.18309487  0.02415016  0.58787793     0.10660
Cu326      Cu  0.20641410  0.13704031  0.59908258     0.44170
Cu327      Cu  0.25049652  0.06675300  0.62099183     0.41990
Cu328      Cu  0.29456014  0.13749543  0.64318048     0.43880
N329        N  0.23371214  0.17587355  0.61320770    -0.32950
N330        N  0.26626562  0.17608147  0.62948942    -0.27210
C331        C  0.27648699  0.20450244  0.63519974    -0.03310
C332        C  0.24897077  0.22302868  0.62184775     0.08910
C333        C  0.22228728  0.20413525  0.60809312     0.02700
H334        H  0.30197706  0.21113143  0.64817529     0.10350
H335        H  0.19639342  0.21040380  0.59536934     0.09430
N336        N  0.31727227  0.09617690  0.65458413    -0.34400
N337        N  0.30135167  0.07039711  0.64658802    -0.26580
C338        C  0.32328314  0.04805029  0.65778507    -0.01820
C339        C  0.35428090  0.06050507  0.67346504     0.06790
C340        C  0.34970019  0.09094162  0.67105144     0.04880
H341        H  0.31703750  0.02456221  0.65475698     0.09990
H342        H  0.36842924  0.10805730  0.68057149     0.08820
N343        N  0.79695821  0.90870917  0.89987898    -0.25570
N344        N  0.81281522  0.88292699  0.90772695    -0.33430
C345        C  0.84561465  0.88810935  0.92389620     0.02770
C346        C  0.85051642  0.91853581  0.92627955     0.08800
C347        C  0.81931342  0.93103553  0.91088055    -0.04300
H348        H  0.86449118  0.87096399  0.93312730     0.09460
H349        H  0.81333121  0.95453156  0.90781576     0.10660
Cu350      Cu  0.78980262  0.84173651  0.89612788     0.44170
Cu351      Cu  0.74591594  0.91212117  0.87445081     0.41990
Cu352      Cu  0.70166968  0.84147329  0.85201958     0.43880
N353        N  0.76245975  0.80297318  0.88191032    -0.32950
N354        N  0.72991090  0.80281504  0.86562410    -0.27210
C355        C  0.71966722  0.77440477  0.85986959    -0.03310
C356        C  0.74716754  0.75584278  0.87319905     0.08910
C357        C  0.77385928  0.77470080  0.88698353     0.02700
H358        H  0.69417154  0.76780631  0.84688587     0.10350
H359        H  0.79974006  0.76840174  0.89970642     0.09430
N360        N  0.67904405  0.88288535  0.84077985    -0.34400
N361        N  0.69503053  0.90861327  0.84886459    -0.26580
C362        C  0.67310571  0.93103622  0.83779307    -0.01820
C363        C  0.64203947  0.91869192  0.82210270     0.06790
C364        C  0.64657651  0.88823667  0.82437735     0.04880
H365        H  0.67938654  0.95450319  0.84092819     0.09990
H366        H  0.62777339  0.87118723  0.81482142     0.08820
O367        O  0.54143622  0.95009298  0.75500009    -0.71220
O368        O  0.45539102  0.99227765  0.71030146    -0.72200
O369        O  0.54259204  0.99228834  0.71127871    -0.60820
O370        O  0.45424690  0.95008563  0.75402971    -0.69230
O371        O  0.45355863  0.98711717  0.78460619    -0.68790
O372        O  0.54191941  0.02932825  0.74184755    -0.60040
O373        O  0.45471870  0.02932285  0.74086398    -0.72550
O374        O  0.54078942  0.98712604  0.78557523    -0.71330
Cu375      Cu  0.49843975  0.96988680  0.73157533     1.04560
Cu376      Cu  0.49771987  0.00952686  0.76430392     1.04330
C377        C  0.55456762  0.96202468  0.77727211     0.94980
C378        C  0.44161265  0.01738300  0.71858665     0.94110
C379        C  0.55607201  0.01738298  0.71987776     0.86260
C380        C  0.44009258  0.96201764  0.77600422     0.92530
N381        N  0.19490140  0.90859875  0.89631551    -0.25570
N382        N  0.17907023  0.88282018  0.90429671    -0.33430
C383        C  0.14664280  0.88803085  0.92078330     0.02770
C384        C  0.14195816  0.91846218  0.92322957     0.08800
C385        C  0.17290385  0.93093743  0.90754496    -0.04300
H386        H  0.12799280  0.87090131  0.93029928     0.09460
H387        H  0.17907132  0.95442918  0.90454304     0.10660
Cu388      Cu  0.20196844  0.84156552  0.89284579     0.44170
Cu389      Cu  0.24575102  0.91211093  0.87070721     0.41990
Cu390      Cu  0.29011776  0.84162662  0.84874528     0.43880
N391        N  0.23019578  0.80288173  0.87930243    -0.32950
N392        N  0.26275025  0.80289439  0.86301953    -0.27210
C393        C  0.27409112  0.77455712  0.85806735    -0.03310
C394        C  0.24734404  0.75584186  0.87193661     0.08910
C395        C  0.21989001  0.77454221  0.88517619     0.02700
H396        H  0.29997470  0.76811436  0.84538771     0.10350
H397        H  0.19438831  0.76809022  0.89819799     0.09430
N398        N  0.31285757  0.88297457  0.83735570    -0.34400
N399        N  0.29683963  0.90870543  0.84530490    -0.26580
C400        C  0.31912093  0.93111691  0.83445979    -0.01820
C401        C  0.35044933  0.91874941  0.81905610     0.06790
C402        C  0.34569876  0.88829877  0.82127021     0.04880
H403        H  0.31301941  0.95458790  0.83765532     0.09990
H404        H  0.36473012  0.87123413  0.81200009     0.08820
N405        N  0.69873487  0.57005530  0.84609966    -0.25570
N406        N  0.68275120  0.59579164  0.83823464    -0.33430
C407        C  0.64996701  0.59050520  0.82207677     0.02770
C408        C  0.64520847  0.56006152  0.81972264     0.08800
C409        C  0.67648223  0.54766088  0.83512303    -0.04300
H410        H  0.63099893  0.60759147  0.81283659     0.09460
H411        H  0.68257891  0.52418380  0.83820947     0.10660
Cu412      Cu  0.70556352  0.63706732  0.84980413     0.44170
Cu413      Cu  0.74979392  0.56676253  0.87152548     0.41990
Cu414      Cu  0.79370325  0.63749121  0.89390467     0.43880
N415        N  0.73279160  0.67589138  0.86401854    -0.32950
N416        N  0.76534363  0.67608679  0.88030163    -0.27210
C417        C  0.77553973  0.70450255  0.88605498    -0.03310
C418        C  0.74800925  0.72303940  0.87272907     0.08910
C419        C  0.72134250  0.70415700  0.85894600     0.02700
H420        H  0.80103485  0.71112093  0.89903068     0.10350
H421        H  0.69545595  0.71043606  0.84622001     0.09430
N422        N  0.81652529  0.59616405  0.90517622    -0.34400
N423        N  0.80066195  0.57039032  0.89711170    -0.26580
C424        C  0.82268660  0.54803500  0.90821055    -0.01820
C425        C  0.85368389  0.56047846  0.92389776     0.06790
C426        C  0.84900799  0.59091649  0.92159063     0.04880
H427        H  0.81651678  0.52454882  0.90510004     0.09990
H428        H  0.86772183  0.60802466  0.93113586     0.08820
N429        N  0.69549292  0.40860454  0.64676726    -0.25570
N430        N  0.67972132  0.38283254  0.65481883    -0.33430
C431        C  0.64724538  0.38805612  0.67125804     0.02770
C432        C  0.64246868  0.41848888  0.67359883     0.08800
C433        C  0.67340829  0.43095195  0.65790211    -0.04300
H434        H  0.62861668  0.37093484  0.68080549     0.09460
H435        H  0.67950400  0.45444126  0.65482002     0.10660
Cu436      Cu  0.70273864  0.34157141  0.64350300     0.44170
Cu437      Cu  0.74635282  0.41209992  0.62117131     0.41990
Cu438      Cu  0.79089340  0.34160611  0.59940761     0.43880
N439        N  0.73105733  0.30288246  0.63006332    -0.32950
N440        N  0.76361392  0.30288532  0.61378242    -0.27210
C441        C  0.77500393  0.27454676  0.60888961    -0.03310
C442        C  0.74828640  0.25584118  0.62279549     0.08910
C443        C  0.72079903  0.27454826  0.63599516     0.02700
H444        H  0.80089087  0.26809653  0.59621637     0.10350
H445        H  0.69529711  0.26810448  0.64902025     0.09430
N446        N  0.81351339  0.38294575  0.58788770    -0.34400
N447        N  0.79743152  0.40868055  0.59576616    -0.26580
C448        C  0.81962474  0.43108651  0.58483123    -0.01820
C449        C  0.85096344  0.41871114  0.56944313     0.06790
C450        C  0.84630977  0.38826174  0.57175888     0.04880
H451        H  0.81344767  0.45455935  0.58794722     0.09990
H452        H  0.86536773  0.37119294  0.56252027     0.08820
N453        N  0.19871098  0.57026217  0.89968117    -0.25570
N454        N  0.18270814  0.59603412  0.90752128    -0.33430
C455        C  0.14992745  0.59080887  0.92368469     0.02770
C456        C  0.14519622  0.56037585  0.92606760     0.08800
C457        C  0.17647489  0.54791331  0.91067941    -0.04300
H458        H  0.13094046  0.60792920  0.93290761     0.09460
H459        H  0.18258723  0.52442380  0.90761377     0.10660
Cu460      Cu  0.20543415  0.63729718  0.89592623     0.44170
Cu461      Cu  0.24976602  0.56678039  0.87426069     0.41990
Cu462      Cu  0.29358537  0.63728887  0.85182821     0.43880
N463        N  0.23273089  0.67599761  0.88156515    -0.32950
N464        N  0.26528790  0.67600061  0.86528460    -0.27210
C465        C  0.27556158  0.70434048  0.85938188    -0.03310
C466        C  0.24808475  0.72304359  0.87260027     0.08910
C467        C  0.22135566  0.70433242  0.88648641     0.02700
H468        H  0.30107192  0.71079315  0.84636839     0.10350
H469        H  0.19547634  0.71077462  0.89917059     0.09430
N470        N  0.31648853  0.59595075  0.84057809    -0.34400
N471        N  0.30063995  0.57021515  0.84866822    -0.26580
C472        C  0.32267861  0.54781189  0.83759065    -0.01820
C473        C  0.35367394  0.56018916  0.82188979     0.06790
C474        C  0.34897522  0.59063800  0.82416759     0.04880
H475        H  0.31652101  0.52433894  0.84072311     0.09990
H476        H  0.36767401  0.60770877  0.81460446     0.08820
O477        O  0.95507218  0.49223084  0.96034801    -0.71220
O478        O  0.04147534  0.45004061  0.50472278    -0.72200
O479        O  0.95428098  0.45003539  0.50407325    -0.60820
O480        O  0.04227646  0.49223908  0.96100093    -0.69230
O481        O  0.04185426  0.52927670  0.99157446    -0.68790
O482        O  0.95384122  0.48706384  0.53465545    -0.60040
O483        O  0.04107693  0.48707111  0.53530316    -0.72550
O484        O  0.95465054  0.52927245  0.99091709    -0.71330
Cu485      Cu  0.99829116  0.46983694  0.98145907     1.04560
Cu486      Cu  0.99783855  0.50947405  0.51419370     1.04330
C487        C  0.94136304  0.51733513  0.96868776     0.94980
C488        C  0.05478611  0.46197041  0.52694726     0.94110
C489        C  0.94030315  0.46196654  0.52609921     0.86260
C490        C  0.05582399  0.51733423  0.96955014     0.92530
O491        O  0.45465674  0.52885264  0.75486508    -0.71220
O492        O  0.54105659  0.48666643  0.71032975    -0.72200
O493        O  0.45386317  0.48666180  0.71097796    -0.60820
O494        O  0.54185248  0.52885242  0.75420814    -0.69230
O495        O  0.54228373  0.49180347  0.78465031    -0.68790
O496        O  0.45427311  0.44960302  0.74141056    -0.60040
O497        O  0.54147401  0.44960495  0.74075961    -0.72550
O498        O  0.45505688  0.49180069  0.78530410    -0.71330
Cu499      Cu  0.49784025  0.50905789  0.73152271     1.04560
Cu500      Cu  0.49828660  0.46940045  0.76410774     1.04330
C501        C  0.44136075  0.51691458  0.77705348     0.94980
C502        C  0.55476043  0.46155420  0.71857259     0.94110
C503        C  0.44032467  0.46155379  0.71942172     0.86260
C504        C  0.55582532  0.51690680  0.77619073     0.92530
N505        N  0.29761789  0.40871073  0.64915712    -0.25570
N506        N  0.31353791  0.38293481  0.65696442    -0.33430
C507        C  0.34628416  0.38813008  0.67317886     0.02770
C508        C  0.35108476  0.41855867  0.67563363     0.08800
C509        C  0.31987723  0.43104592  0.66023051    -0.04300
H510        H  0.36518100  0.37099239  0.68240337     0.09460
H511        H  0.31381488  0.45453974  0.65722277     0.10660
Cu512      Cu  0.29064289  0.34173779  0.64528132     0.44170
Cu513      Cu  0.24658849  0.41210284  0.62371804     0.41990
Cu514      Cu  0.20250225  0.34144300  0.60117690     0.43880
N515        N  0.26337095  0.30296707  0.63102097    -0.32950
N516        N  0.23082015  0.30279673  0.61473655    -0.27210
C517        C  0.22060543  0.27438290  0.60897410    -0.03310
C518        C  0.24812614  0.25583181  0.62229749     0.08910
C519        C  0.27480067  0.27469950  0.63608511     0.02700
H520        H  0.19510286  0.26777451  0.59600078     0.10350
H521        H  0.30067755  0.26841007  0.64881568     0.09430
N522        N  0.17975846  0.38284793  0.59002575    -0.34400
N523        N  0.19568777  0.40857968  0.59815085    -0.26580
C524        C  0.17366870  0.43099717  0.58715578    -0.01820
C525        C  0.14260130  0.41864508  0.57147279     0.06750
C526        C  0.14723388  0.38819124  0.57367250     0.04880
H527        H  0.17987470  0.45446564  0.59034847     0.09990
H528        H  0.12844520  0.37113765  0.56411006     0.08820
C529        C  0.40885678  0.44655307  0.70395056    -0.11550
C530        C  0.38240019  0.43394219  0.69097983    -0.13110
C531        C  0.08572128  0.44693271  0.54277206    -0.11550
C532        C  0.11174179  0.43418969  0.55594748    -0.13110
C533        C  0.11383706  0.54496178  0.94129614    -0.11550
C534        C  0.08733679  0.53233051  0.95416794    -0.13110
C535        C  0.38448854  0.54467626  0.80624254    -0.11550
C536        C  0.41046722  0.53195622  0.79296640    -0.13110
C537        C  0.61164851  0.43390358  0.68931731    -0.11550
C538        C  0.58565823  0.44654216  0.70264590    -0.13110
C539        C  0.90879891  0.44693962  0.54146901    -0.11550
C540        C  0.88231442  0.43422511  0.55428839    -0.13110
C541        C  0.91046426  0.53235903  0.95282294    -0.11550
C542        C  0.88448660  0.54503204  0.93955374    -0.13110
C543        C  0.61383743  0.54458696  0.80450148    -0.11550
C544        C  0.58733506  0.53191555  0.79162102    -0.13110
C545        C  0.38189870  0.93426969  0.80399801    -0.11550
C546        C  0.40847276  0.94698778  0.79126500    -0.13110
C547        C  0.61129531  0.93424332  0.80647744    -0.11550
C548        C  0.58537731  0.94698824  0.79321095    -0.13110
C549        C  0.38496858  0.04507010  0.68923543    -0.11550
C550        C  0.41084175  0.03240413  0.70260425    -0.13110
C551        C  0.88194841  0.93390533  0.94152976    -0.11550
C552        C  0.90851057  0.94650503  0.95441183    -0.13110
C553        C  0.08770278  0.03185030  0.54142534    -0.11550
C554        C  0.11430799  0.04452785  0.55420239    -0.13110
C555        C  0.08533201  0.94649063  0.95246586    -0.11550
C556        C  0.11123519  0.93386356  0.93904901    -0.13110
C557        C  0.61433583  0.04499988  0.69184909    -0.11550
C558        C  0.58771995  0.03237411  0.70461727    -0.13110
C559        C  0.88500460  0.04463468  0.55681416    -0.11550
C560        C  0.91086480  0.03190616  0.54343856    -0.13110
loop_ 
_geom_bond_atom_site_label_1 
_geom_bond_atom_site_label_2 
_geom_bond_distance 
_geom_bond_site_symmetry_2 
_ccdc_geom_bond_type 
N1            N2   1.323       .  A
N1            C5   1.346       .  A
N1           Cu9   2.075       .  S
N2            C3   1.344       .  A
N2           Cu8   2.070       .  S
C3            C4   1.378       .  A
C3            H6   1.082       .  S
C4            C5   1.380       .  A
C4          C277   1.437       .  S
C5            H7   1.082       .  S
Cu8          N11   2.070       .  S
Cu9          N19   2.075       .  S
Cu10         N12   2.071       .  S
Cu10         N18   2.071       .  S
N11          N12   1.321       .  A
N11          C15   1.345       .  A
N12          C13   1.345       .  A
C13          C14   1.383       .  A
C13          H16   1.082       .  S
C14          C15   1.383       .  A
C14         C162   1.471       .  S
C15          H17   1.082       .  S
N18          N19   1.323       .  A
N18          C22   1.344       .  A
N19          C20   1.346       .  A
C20          C21   1.380       .  A
C20          H23   1.082       .  S
C21          C22   1.378       .  A
C21         C279   1.437       .  S
C22          H24   1.082       .  S
O25         Cu33   2.011   1_465  S
O25          C35   1.276       .  A
O26        Cu313   2.011   1_554  S
O26          C36   1.277       .  A
O27        Cu313   2.010   1_454  S
O27          C37   1.276       .  A
O28         Cu33   2.010   1_565  S
O28          C38   1.276       .  A
O29        Cu314   2.011       .  S
O29          C38   1.277       .  A
O30         Cu34   2.011   1_455  S
O30          C37   1.276   1_565  A
O31         Cu34   2.011       .  S
O31          C36   1.276   1_565  A
O32        Cu314   2.011   1_455  S
O32          C35   1.277       .  A
Cu33        O306   2.011       .  S
Cu33        O307   2.010   1_655  S
Cu33       Cu314   2.379   1_545  S
Cu34        O309   2.011   1_554  S
Cu34        O312   2.011   1_654  S
Cu34       Cu313   2.379   1_564  S
C35         C275   1.435       .  S
C36         C280   1.436       .  S
C37         C273   1.435       .  S
C38         C272   1.435       .  S
N39          N40   1.323       .  A
N39          C43   1.346       .  A
N39         Cu47   2.075       .  S
N40          C41   1.344       .  A
N40         Cu46   2.070       .  S
C41          C42   1.378       .  A
C41          H44   1.082       .  S
C42          C43   1.380       .  A
C42         C274   1.437       .  S
C43          H45   1.082       .  S
Cu46         N49   2.069       .  S
Cu47         N57   2.075       .  S
Cu48         N50   2.071       .  S
Cu48         N56   2.072       .  S
N49          N50   1.321       .  A
N49          C53   1.345       .  A
N50          C51   1.345       .  A
C51          C52   1.384       .  A
C51          H54   1.082       .  S
C52          C53   1.383       .  A
C52         C238   1.471       .  S
C53          H55   1.082       .  S
N56          N57   1.324       .  A
N56          C60   1.344       .  A
N57          C58   1.346       .  A
C58          C59   1.380       .  A
C58          H61   1.082       .  S
C59          C60   1.378       .  A
C59         C269   1.437       .  S
C60          H62   1.082       .  S
N63          N64   1.323       .  A
N63          C67   1.346       .  A
N63         Cu71   2.075       .  S
N64          C65   1.344       .  A
N64         Cu70   2.069       .  S
C65          C66   1.378       .  A
C65          H68   1.082       .  S
C66          C67   1.381       .  A
C66         C271   1.437       .  S
C67          H69   1.082       .  S
Cu70         N73   2.069       .  S
Cu71         N81   2.075       .  S
Cu72         N74   2.072       .  S
Cu72         N80   2.072       .  S
N73          N74   1.321       .  A
N73          C77   1.344       .  A
N74          C75   1.345       .  A
C75          C76   1.384       .  A
C75          H78   1.082       .  S
C76          C77   1.383       .  A
C76         C138   1.471       .  S
C77          H79   1.082       .  S
N80          N81   1.324       .  A
N80          C84   1.345       .  A
N81          C82   1.346       .  A
C82          C83   1.380       .  A
C82          H85   1.082       .  S
C83          C84   1.378       .  A
C83         C267   1.437       .  S
C84          H86   1.082       .  S
O87         Cu95   2.010       .  S
O87          C97   1.276       .  A
O88         Cu95   2.010       .  S
O88          C98   1.276   1_565  A
O89         Cu95   2.010       .  S
O89          C99   1.276   1_565  A
O90         Cu95   2.010       .  S
O90         C100   1.276       .  A
O91         Cu96   2.011   1_565  S
O91         C100   1.276       .  A
O92         Cu96   2.011       .  S
O92          C99   1.277       .  A
O93         Cu96   2.011       .  S
O93          C98   1.277       .  A
O94         Cu96   2.011   1_565  S
O94          C97   1.277       .  A
Cu95        Cu96   2.379   1_565  S
C97         C268   1.435       .  S
C98         C270   1.435       .  S
C99         C278   1.435       .  S
C100        C266   1.435       .  S
N101        N102   1.323       .  A
N101        C105   1.346       .  A
N101       Cu109   2.075       .  S
N102        C103   1.344       .  A
N102       Cu108   2.070       .  S
C103        C104   1.378       .  A
C103        H106   1.082       .  S
C104        C105   1.380       .  A
C104        C276   1.437       .  S
C105        H107   1.082       .  S
Cu108       N111   2.070       .  S
Cu109       N119   2.075       .  S
Cu110       N112   2.071       .  S
Cu110       N118   2.071       .  S
N111        N112   1.321       .  A
N111        C115   1.345       .  A
N112        C113   1.345       .  A
C113        C114   1.383       .  A
C113        H116   1.082       .  S
C114        C115   1.383       .  A
C114        C186   1.471       .  S
C115        H117   1.082       .  S
N118        N119   1.323       .  A
N118        C122   1.344       .  A
N119        C120   1.346       .  A
C120        C121   1.380       .  A
C120        H123   1.082       .  S
C121        C122   1.378       .  A
C121        C265   1.437       .  S
C122        H124   1.082       .  S
N125        N126   1.323       .  A
N125        C129   1.346       .  A
N125       Cu133   2.075       .  S
N126        C127   1.344       .  A
N126       Cu132   2.070       .  S
C127        C128   1.378       .  A
C127        H130   1.082       .  S
C128        C129   1.380       .  A
C128        C263   1.437       .  S
C129        H131   1.082       .  S
Cu132       N135   2.069       .  S
Cu133       N143   2.075       .  S
Cu134       N136   2.071       .  S
Cu134       N142   2.071       .  S
N135        N136   1.321       .  A
N135        C139   1.345       .  A
N136        C137   1.345       .  A
C137        C138   1.384       .  A
C137        H140   1.082       .  S
C138        C139   1.383       .  A
C139        H141   1.082       .  S
N142        N143   1.324       .  A
N142        C146   1.344       .  A
N143        C144   1.346       .  A
C144        C145   1.380       .  A
C144        H147   1.082       .  S
C145        C146   1.378       .  A
C145        C262   1.437       .  S
C146        H148   1.082       .  S
N149        N150   1.323       .  A
N149        C153   1.346       .  A
N149       Cu157   2.075       .  S
N150        C151   1.344       .  A
N150       Cu156   2.070       .  S
C151        C152   1.378       .  A
C151        H154   1.082       .  S
C152        C153   1.380       .  A
C152        C257   1.437       .  S
C153        H155   1.082       .  S
Cu156       N159   2.070       .  S
Cu157       N167   2.075       .  S
Cu158       N160   2.071       .  S
Cu158       N166   2.071       .  S
N159        N160   1.321       .  A
N159        C163   1.345       .  A
N160        C161   1.345       .  A
C161        C162   1.383       .  A
C161        H164   1.082       .  S
C162        C163   1.383       .  A
C163        H165   1.082       .  S
N166        N167   1.323       .  A
N166        C170   1.344       .  A
N167        C168   1.346       .  A
C168        C169   1.380       .  A
C168        H171   1.082       .  S
C169        C170   1.378       .  A
C169        C260   1.437       .  S
C170        H172   1.082       .  S
N173        N174   1.323       .  A
N173        C177   1.346       .  A
N173       Cu181   2.075       .  S
N174        C175   1.344       .  A
N174       Cu180   2.070       .  S
C175        C176   1.378       .  A
C175        H178   1.082       .  S
C176        C177   1.380       .  A
C176        C253   1.437       .  S
C177        H179   1.082       .  S
Cu180       N183   2.070       .  S
Cu181       N191   2.075       .  S
Cu182       N184   2.070       .  S
Cu182       N190   2.071       .  S
N183        N184   1.321       .  A
N183        C187   1.345       .  A
N184        C185   1.345       .  A
C185        C186   1.383       .  A
C185        H188   1.082       .  S
C186        C187   1.383       .  A
C187        H189   1.082       .  S
N190        N191   1.323       .  A
N190        C194   1.344       .  A
N191        C192   1.346       .  A
C192        C193   1.380       .  A
C192        H195   1.082       .  S
C193        C194   1.378       .  A
C193        C255   1.437       .  S
C194        H196   1.082       .  S
O197       Cu205   2.010       .  S
O197        C207   1.276       .  A
O198       Cu485   2.010   1_454  S
O198        C208   1.276       .  A
O199       Cu485   2.010   1_554  S
O199        C209   1.276       .  A
O200       Cu205   2.010   1_455  S
O200        C210   1.276       .  A
O201       Cu486   2.011   1_455  S
O201        C210   1.277       .  A
O202       Cu206   2.011       .  S
O202        C209   1.276       .  A
O203       Cu206   2.011   1_455  S
O203        C208   1.276       .  A
O204       Cu486   2.011       .  S
O204        C207   1.277       .  A
Cu205       O478   2.010   1_655  S
Cu205       O479   2.010       .  S
Cu205      Cu486   2.379       .  S
Cu206       O481   2.011   1_654  S
Cu206       O484   2.011   1_554  S
Cu206      Cu485   2.379   1_554  S
C207        C261   1.435       .  S
C208        C251   1.435       .  S
C209        C259   1.435       .  S
C210        C254   1.435       .  S
O211       Cu219   2.011       .  S
O211        C221   1.277       .  A
O212       Cu219   2.010       .  S
O212        C222   1.276       .  A
O213       Cu219   2.011       .  S
O213        C223   1.276       .  A
O214       Cu219   2.011       .  S
O214        C224   1.276       .  A
O215       Cu220   2.011       .  S
O215        C224   1.276       .  A
O216       Cu220   2.011       .  S
O216        C223   1.277       .  A
O217       Cu220   2.011       .  S
O217        C222   1.277       .  A
O218       Cu220   2.011       .  S
O218        C221   1.276       .  A
Cu219      Cu220   2.379       .  S
C221        C256   1.436       .  S
C222        C258   1.435       .  S
C223        C249   1.435       .  S
C224        C264   1.436       .  S
N225        N226   1.323       .  A
N225        C229   1.346       .  A
N225       Cu233   2.075       .  S
N226        C227   1.344       .  A
N226       Cu232   2.069       .  S
C227        C228   1.378       .  A
C227        H230   1.082       .  S
C228        C229   1.380       .  A
C228        C250   1.437       .  S
C229        H231   1.082       .  S
Cu232       N235   2.069       .  S
Cu233       N243   2.075       .  S
Cu234       N236   2.072       .  S
Cu234       N242   2.072       .  S
N235        N236   1.321       .  A
N235        C239   1.344       .  A
N236        C237   1.345       .  A
C237        C238   1.384       .  A
C237        H240   1.082       .  S
C238        C239   1.383       .  A
C239        H241   1.082       .  S
N242        N243   1.324       .  A
N242        C246   1.345       .  A
N243        C244   1.346       .  A
C244        C245   1.380       .  A
C244        H247   1.082       .  S
C245        C246   1.378       .  A
C245        C252   1.437       .  S
C246        H248   1.082       .  S
C249        C250   1.206       .  T
C251        C252   1.206       .  T
C253        C254   1.206       .  T
C255        C256   1.206       .  T
C257        C258   1.206       .  T
C259        C260   1.206       .  T
C261        C262   1.206       .  T
C263        C264   1.206       .  T
C265        C266   1.206       .  T
C267        C268   1.206       .  T
C269        C270   1.206       .  T
C271        C272   1.206       .  T
C273        C274   1.206       .  T
C275        C276   1.206       .  T
C277        C278   1.206       .  T
C279        C280   1.206       .  T
N281        N282   1.323       .  A
N281        C285   1.346       .  A
N281       Cu289   2.075       .  S
N282        C283   1.344       .  A
N282       Cu288   2.070       .  S
C283        C284   1.378       .  A
C283        H286   1.082       .  S
C284        C285   1.380       .  A
C284        C557   1.437       .  S
C285        H287   1.082       .  S
Cu288       N291   2.070       .  S
Cu289       N299   2.075       .  S
Cu290       N292   2.071       .  S
Cu290       N298   2.071       .  S
N291        N292   1.321       .  A
N291        C295   1.345       .  A
N292        C293   1.345       .  A
C293        C294   1.383       .  A
C293        H296   1.082       .  S
C294        C295   1.383       .  A
C294        C442   1.471       .  S
C295        H297   1.082       .  S
N298        N299   1.323       .  A
N298        C302   1.344       .  A
N299        C300   1.346       .  A
C300        C301   1.380       .  A
C300        H303   1.082       .  S
C301        C302   1.378       .  A
C301        C559   1.437       .  S
C302        H304   1.082       .  S
O305       Cu313   2.011   1_465  S
O305        C315   1.276       .  A
O306        C316   1.277       .  A
O307        C317   1.276       .  A
O308       Cu313   2.010   1_565  S
O308        C318   1.276       .  A
O309        C318   1.277       .  A
O310       Cu314   2.011   1_455  S
O310        C317   1.276   1_565  A
O311       Cu314   2.011       .  S
O311        C316   1.276   1_565  A
O312        C315   1.277       .  A
C315        C555   1.435       .  S
C316        C560   1.436       .  S
C317        C553   1.435       .  S
C318        C552   1.435       .  S
N319        N320   1.323       .  A
N319        C323   1.346       .  A
N319       Cu327   2.075       .  S
N320        C321   1.344       .  A
N320       Cu326   2.070       .  S
C321        C322   1.378       .  A
C321        H324   1.082       .  S
C322        C323   1.380       .  A
C322        C554   1.437       .  S
C323        H325   1.082       .  S
Cu326       N329   2.069       .  S
Cu327       N337   2.075       .  S
Cu328       N330   2.071       .  S
Cu328       N336   2.072       .  S
N329        N330   1.321       .  A
N329        C333   1.345       .  A
N330        C331   1.345       .  A
C331        C332   1.384       .  A
C331        H334   1.082       .  S
C332        C333   1.383       .  A
C332        C518   1.471       .  S
C333        H335   1.082       .  S
N336        N337   1.324       .  A
N336        C340   1.344       .  A
N337        C338   1.346       .  A
C338        C339   1.380       .  A
C338        H341   1.082       .  S
C339        C340   1.378       .  A
C339        C549   1.437       .  S
C340        H342   1.082       .  S
N343        N344   1.323       .  A
N343        C347   1.346       .  A
N343       Cu351   2.075       .  S
N344        C345   1.344       .  A
N344       Cu350   2.069       .  S
C345        C346   1.378       .  A
C345        H348   1.082       .  S
C346        C347   1.381       .  A
C346        C551   1.437       .  S
C347        H349   1.082       .  S
Cu350       N353   2.069       .  S
Cu351       N361   2.075       .  S
Cu352       N354   2.072       .  S
Cu352       N360   2.072       .  S
N353        N354   1.321       .  A
N353        C357   1.344       .  A
N354        C355   1.345       .  A
C355        C356   1.384       .  A
C355        H358   1.082       .  S
C356        C357   1.383       .  A
C356        C418   1.471       .  S
C357        H359   1.082       .  S
N360        N361   1.324       .  A
N360        C364   1.345       .  A
N361        C362   1.346       .  A
C362        C363   1.380       .  A
C362        H365   1.082       .  S
C363        C364   1.378       .  A
C363        C547   1.437       .  S
C364        H366   1.082       .  S
O367       Cu375   2.010       .  S
O367        C377   1.276       .  A
O368       Cu375   2.010       .  S
O368        C378   1.276   1_565  A
O369       Cu375   2.010       .  S
O369        C379   1.276   1_565  A
O370       Cu375   2.010       .  S
O370        C380   1.276       .  A
O371       Cu376   2.011   1_565  S
O371        C380   1.276       .  A
O372       Cu376   2.011       .  S
O372        C379   1.277       .  A
O373       Cu376   2.011       .  S
O373        C378   1.277       .  A
O374       Cu376   2.011   1_565  S
O374        C377   1.277       .  A
Cu375      Cu376   2.379   1_565  S
C377        C548   1.435       .  S
C378        C550   1.435       .  S
C379        C558   1.435       .  S
C380        C546   1.435       .  S
N381        N382   1.323       .  A
N381        C385   1.346       .  A
N381       Cu389   2.075       .  S
N382        C383   1.344       .  A
N382       Cu388   2.070       .  S
C383        C384   1.378       .  A
C383        H386   1.082       .  S
C384        C385   1.380       .  A
C384        C556   1.437       .  S
C385        H387   1.082       .  S
Cu388       N391   2.070       .  S
Cu389       N399   2.075       .  S
Cu390       N392   2.071       .  S
Cu390       N398   2.071       .  S
N391        N392   1.321       .  A
N391        C395   1.345       .  A
N392        C393   1.345       .  A
C393        C394   1.383       .  A
C393        H396   1.082       .  S
C394        C395   1.383       .  A
C394        C466   1.471       .  S
C395        H397   1.082       .  S
N398        N399   1.323       .  A
N398        C402   1.344       .  A
N399        C400   1.346       .  A
C400        C401   1.380       .  A
C400        H403   1.082       .  S
C401        C402   1.378       .  A
C401        C545   1.437       .  S
C402        H404   1.082       .  S
N405        N406   1.323       .  A
N405        C409   1.346       .  A
N405       Cu413   2.075       .  S
N406        C407   1.344       .  A
N406       Cu412   2.070       .  S
C407        C408   1.378       .  A
C407        H410   1.082       .  S
C408        C409   1.380       .  A
C408        C543   1.437       .  S
C409        H411   1.082       .  S
Cu412       N415   2.069       .  S
Cu413       N423   2.075       .  S
Cu414       N416   2.071       .  S
Cu414       N422   2.071       .  S
N415        N416   1.321       .  A
N415        C419   1.345       .  A
N416        C417   1.345       .  A
C417        C418   1.384       .  A
C417        H420   1.082       .  S
C418        C419   1.383       .  A
C419        H421   1.082       .  S
N422        N423   1.324       .  A
N422        C426   1.344       .  A
N423        C424   1.346       .  A
C424        C425   1.380       .  A
C424        H427   1.082       .  S
C425        C426   1.378       .  A
C425        C542   1.437       .  S
C426        H428   1.082       .  S
N429        N430   1.323       .  A
N429        C433   1.346       .  A
N429       Cu437   2.075       .  S
N430        C431   1.344       .  A
N430       Cu436   2.070       .  S
C431        C432   1.378       .  A
C431        H434   1.082       .  S
C432        C433   1.380       .  A
C432        C537   1.437       .  S
C433        H435   1.082       .  S
Cu436       N439   2.070       .  S
Cu437       N447   2.075       .  S
Cu438       N440   2.071       .  S
Cu438       N446   2.071       .  S
N439        N440   1.321       .  A
N439        C443   1.345       .  A
N440        C441   1.345       .  A
C441        C442   1.383       .  A
C441        H444   1.082       .  S
C442        C443   1.383       .  A
C443        H445   1.082       .  S
N446        N447   1.323       .  A
N446        C450   1.344       .  A
N447        C448   1.346       .  A
C448        C449   1.380       .  A
C448        H451   1.082       .  S
C449        C450   1.378       .  A
C449        C540   1.437       .  S
C450        H452   1.082       .  S
N453        N454   1.323       .  A
N453        C457   1.346       .  A
N453       Cu461   2.075       .  S
N454        C455   1.344       .  A
N454       Cu460   2.070       .  S
C455        C456   1.378       .  A
C455        H458   1.082       .  S
C456        C457   1.380       .  A
C456        C533   1.437       .  S
C457        H459   1.082       .  S
Cu460       N463   2.070       .  S
Cu461       N471   2.075       .  S
Cu462       N464   2.070       .  S
Cu462       N470   2.071       .  S
N463        N464   1.321       .  A
N463        C467   1.345       .  A
N464        C465   1.345       .  A
C465        C466   1.383       .  A
C465        H468   1.082       .  S
C466        C467   1.383       .  A
C467        H469   1.082       .  S
N470        N471   1.323       .  A
N470        C474   1.344       .  A
N471        C472   1.346       .  A
C472        C473   1.380       .  A
C472        H475   1.082       .  S
C473        C474   1.378       .  A
C473        C535   1.437       .  S
C474        H476   1.082       .  S
O477       Cu485   2.010       .  S
O477        C487   1.276       .  A
O478        C488   1.276       .  A
O479        C489   1.276       .  A
O480       Cu485   2.010   1_455  S
O480        C490   1.276       .  A
O481        C490   1.277       .  A
O482       Cu486   2.011       .  S
O482        C489   1.276       .  A
O483       Cu486   2.011   1_455  S
O483        C488   1.276       .  A
O484        C487   1.277       .  A
C487        C541   1.435       .  S
C488        C531   1.435       .  S
C489        C539   1.435       .  S
C490        C534   1.435       .  S
O491       Cu499   2.011       .  S
O491        C501   1.277       .  A
O492       Cu499   2.010       .  S
O492        C502   1.276       .  A
O493       Cu499   2.011       .  S
O493        C503   1.276       .  A
O494       Cu499   2.011       .  S
O494        C504   1.276       .  A
O495       Cu500   2.011       .  S
O495        C504   1.276       .  A
O496       Cu500   2.011       .  S
O496        C503   1.277       .  A
O497       Cu500   2.011       .  S
O497        C502   1.277       .  A
O498       Cu500   2.011       .  S
O498        C501   1.276       .  A
Cu499      Cu500   2.379       .  S
C501        C536   1.436       .  S
C502        C538   1.435       .  S
C503        C529   1.435       .  S
C504        C544   1.436       .  S
N505        N506   1.323       .  A
N505        C509   1.346       .  A
N505       Cu513   2.075       .  S
N506        C507   1.344       .  A
N506       Cu512   2.069       .  S
C507        C508   1.378       .  A
C507        H510   1.082       .  S
C508        C509   1.380       .  A
C508        C530   1.437       .  S
C509        H511   1.082       .  S
Cu512       N515   2.069       .  S
Cu513       N523   2.075       .  S
Cu514       N516   2.072       .  S
Cu514       N522   2.072       .  S
N515        N516   1.321       .  A
N515        C519   1.344       .  A
N516        C517   1.345       .  A
C517        C518   1.384       .  A
C517        H520   1.082       .  S
C518        C519   1.383       .  A
C519        H521   1.082       .  S
N522        N523   1.324       .  A
N522        C526   1.345       .  A
N523        C524   1.346       .  A
C524        C525   1.380       .  A
C524        H527   1.082       .  S
C525        C526   1.378       .  A
C525        C532   1.437       .  S
C526        H528   1.082       .  S
C529        C530   1.206       .  T
C531        C532   1.206       .  T
C533        C534   1.206       .  T
C535        C536   1.206       .  T
C537        C538   1.206       .  T
C539        C540   1.206       .  T
C541        C542   1.206       .  T
C543        C544   1.206       .  T
C545        C546   1.206       .  T
C547        C548   1.206       .  T
C549        C550   1.206       .  T
C551        C552   1.206       .  T
C553        C554   1.206       .  T
C555        C556   1.206       .  T
C557        C558   1.206       .  T
C559        C560   1.206       .  T
