geometry optimzed in LAMMPS
_audit_creation_date              2020-11-30 
_audit_creation_method            'lammps2cif' 
_symmetry_space_group_name_H-M    'P1' 
_symmetry_Int_Tables_number       1 
_symmetry_cell_setting            triclinic 
loop_ 
_symmetry_equiv_pos_as_xyz 
  x,y,z 
_cell_length_a                    27.53218673 
_cell_length_b                    27.246819875257117 
_cell_length_c                    27.007277329393503 
_cell_angle_alpha                 89.85408911477975 
_cell_angle_beta                  89.16471709824143 
_cell_angle_gamma                 89.97862954393081 
loop_ 
_atom_site_label 
_atom_site_type_symbol 
_atom_site_fract_x 
_atom_site_fract_y 
_atom_site_fract_z 
_atom_site_charge 
O1          O  0.17985111  0.45493645  0.06449294    -0.80600
O2          O  0.20864614  0.61331292  0.95011813    -0.80600
O3          O  0.23956985  0.56054957  0.09618775    -0.80600
O4          O  0.24024571  0.45469360  0.90224808    -0.80600
O5          O  0.18391041  0.55974394  0.03718924    -0.80700
O6          O  0.17925777  0.44950195  0.95611779    -0.80600
O7          O  0.22706054  0.54407948  0.91102881    -0.80600
O8          O  0.24189993  0.46519735  0.11462672    -0.80700
C9          C  0.19668353  0.45838690  0.10814792     1.09100
C10         C  0.20616704  0.58652827  0.91160961     1.09000
C11         C  0.19601866  0.56817442  0.08199817     1.09100
C12         C  0.19534020  0.44713070  0.91134724     1.09000
O13         O  0.26772709  0.39544948  0.96289830    -0.80600
O14         O  0.27498096  0.60813575  0.02811750    -0.80700
O15         O  0.33240392  0.45177065  0.06206234    -0.80600
O16         O  0.31886855  0.52205239  0.88344858    -0.80600
O17         O  0.30137722  0.57521891  0.94419518    -0.80700
O18         O  0.26976871  0.40065101  0.06056764    -0.80600
O19         O  0.33044505  0.44526402  0.95316029    -0.80600
O20         O  0.33404888  0.55764263  0.04717683    -0.80700
Co21       Co  0.22404139  0.42965987  0.01105878     1.51500
Co22       Co  0.23799956  0.56090962  0.98707163     1.51700
Co23       Co  0.28736732  0.50798899  0.07563575     1.51600
Co24       Co  0.28281827  0.49965592  0.94032010     1.51500
O25         O  0.25765059  0.49522881  0.00906123    -1.42600
C26         C  0.31242892  0.40195511  0.95219205     1.09000
C27         C  0.31842252  0.60145160  0.04191025     1.09100
C28         C  0.31551116  0.40801302  0.06298755     1.09000
C29         C  0.32562210  0.56340452  0.90465950     1.09000
O30         O  0.76169517  0.45386402  0.10604724    -0.80600
O31         O  0.76400595  0.53552108  0.89841980    -0.80600
O32         O  0.80332986  0.38641253  0.96935988    -0.80600
O33         O  0.82214595  0.55643469  0.05913001    -0.80600
O34         O  0.78332147  0.44949345  0.92069666    -0.80700
O35         O  0.75823082  0.55057541  0.10936739    -0.80600
O36         O  0.82394096  0.54898973  0.95016242    -0.80600
O37         O  0.82117485  0.45014136  0.04972959    -0.80700
C38         C  0.80607269  0.44540596  0.09462661     1.09100
C39         C  0.80833199  0.54657655  0.90570364     1.09000
C40         C  0.80723015  0.40951880  0.92834390     1.09100
C41         C  0.80385265  0.55538320  0.10297332     1.09000
O42         O  0.66923726  0.55582442  0.05792206    -0.80600
O43         O  0.68943095  0.46071159  0.89015350    -0.80700
O44         O  0.73231808  0.39818277  0.04365990    -0.80600
O45         O  0.73265393  0.60008610  0.95193114    -0.80600
O46         O  0.67264811  0.54594702  0.94985296    -0.80700
O47         O  0.67004009  0.44751905  0.05582101    -0.80600
O48         O  0.73111531  0.60802129  0.04908426    -0.80600
O49         O  0.71038000  0.41727557  0.95617020    -0.80700
Co50       Co  0.71448067  0.50215889  0.07763943     1.51500
Co51       Co  0.72341464  0.49322880  0.94296961     1.51700
Co52       Co  0.77017344  0.44108468  0.99813480     1.51600
Co53       Co  0.77785933  0.57395497  0.00311690     1.51500
O54         O  0.74624543  0.50766960  0.01024704    -1.42600
C55         C  0.68615619  0.59960109  0.05813735     1.09000
C56         C  0.68580954  0.42134684  0.91597411     1.09100
C57         C  0.68777038  0.40403886  0.05495900     1.09000
C58         C  0.68776811  0.59037153  0.94636080     1.09000
O59         O  0.44916082  0.05624475  0.33952905    -0.80600
O60         O  0.54008266  0.94544345  0.33925804    -0.80600
O61         O  0.38826241  0.96521596  0.27419614    -0.80600
O62         O  0.60434417  0.03634318  0.27413798    -0.80600
O63         O  0.43553302  0.95570834  0.33839778    -0.80700
O64         O  0.55496784  0.04624560  0.33823965    -0.80600
O65         O  0.59255198  0.94315833  0.27665187    -0.80600
O66         O  0.39898172  0.05836770  0.27651723    -0.80700
C67         C  0.40696150  0.06424609  0.32246244     1.09100
C68         C  0.58246034  0.93621320  0.32237910     1.09000
C69         C  0.39311691  0.95795141  0.32031319     1.09100
C70         C  0.59805303  0.04451352  0.32006993     1.09000
O71         O  0.55369891  0.09844482  0.24526502    -0.80600
O72         O  0.43873083  0.90295510  0.24496246    -0.80700
O73         O  0.45253106  0.06006006  0.18278204    -0.80600
O74         O  0.54078908  0.94294464  0.18300320    -0.80600
O75         O  0.53123241  0.89289754  0.24624102    -0.80700
O76         O  0.46082129  0.10925466  0.24636721    -0.80600
O77         O  0.55220003  0.04838866  0.18173497    -0.80600
O78         O  0.44183945  0.95414632  0.18178248    -0.80700
Co79       Co  0.50378204  0.07074059  0.29228373     1.51500
Co80       Co  0.48721016  0.93105647  0.29215222     1.51700
Co81       Co  0.42727177  0.00878037  0.22894598     1.51600
Co82       Co  0.56581454  0.99338362  0.22898480     1.51500
O83         O  0.49606746  0.00102534  0.26068232    -1.42600
C84         C  0.55729257  0.09163865  0.19884590     1.09000
C85         C  0.43433707  0.91105928  0.19881284     1.09100
C86         C  0.45275068  0.10331890  0.20048549     1.09000
C87         C  0.53889041  0.89947078  0.20019458     1.09000
O88         O  0.39391967  0.04221822  0.73466245    -0.80600
O89         O  0.60119463  0.95101464  0.72842936    -0.80600
O90         O  0.54805459  0.04934217  0.66402621    -0.80600
O91         O  0.44669189  0.94770465  0.66369531    -0.80600
O92         O  0.59907473  0.04460847  0.72601213    -0.80700
O93         O  0.39594782  0.94918432  0.72787294    -0.80600
O94         O  0.55323706  0.94875154  0.66419726    -0.80600
O95         O  0.44222825  0.04789090  0.66928920    -0.80700
C96         C  0.39972617  0.04998126  0.68846779     1.09100
C97         C  0.59569073  0.94621077  0.68211469     1.09000
C98         C  0.59133539  0.05181981  0.68017759     1.09100
C99         C  0.40346269  0.94400143  0.68147556     1.09000
O100        O  0.44787753  0.93489056  0.82015028    -0.80600
O101        O  0.54918884  0.05263332  0.82102750    -0.80700
O102        O  0.45101483  0.09762918  0.76357261    -0.80600
O103        O  0.54522094  0.89376782  0.75733590    -0.80600
O104        O  0.54873805  0.94425399  0.82135169    -0.80700
O105        O  0.44802037  0.04454278  0.82566612    -0.80600
O106        O  0.45205427  0.89126201  0.75219082    -0.80600
O107        O  0.54371462  0.10221815  0.75685652    -0.80700
Co108      Co  0.42840417  0.99285364  0.77717609     1.51500
Co109      Co  0.56743758  0.99797428  0.77435552     1.51700
Co110      Co  0.49620394  0.06731877  0.71346048     1.51600
Co111      Co  0.49953015  0.92729496  0.70972523     1.51500
O112        O  0.49782072  0.99637840  0.74387436    -1.42600
C113        C  0.44709769  0.89296343  0.79866575     1.09000
C114        C  0.55406803  0.09537727  0.80203096     1.09100
C115        C  0.44597417  0.08881283  0.80970461     1.09000
C116        C  0.55317225  0.90115583  0.80326358     1.09000
O117        O  0.05237211  0.33220191  0.46234175    -0.80600
O118        O  0.93993622  0.32563568  0.55571349    -0.80600
O119        O  0.96424972  0.27462490  0.39384265    -0.80600
O120        O  0.02912727  0.25828067  0.61427524    -0.80600
O121        O  0.95263120  0.33395511  0.44797685    -0.80700
O122        O  0.04030441  0.32462658  0.56889854    -0.80600
O123        O  0.93706389  0.25837967  0.60107708    -0.80600
O124        O  0.05629588  0.27340909  0.40651046    -0.80700
C125        C  0.06274722  0.31799450  0.41868900     1.09100
C126        C  0.93376398  0.30473880  0.59769046     1.09000
C127        C  0.95582195  0.31960169  0.40303481     1.09100
C128        C  0.03980494  0.30368038  0.61121311     1.09000
O129        O  0.09276913  0.23348650  0.56185467    -0.80600
O130        O  0.90024063  0.24199322  0.44160688    -0.80700
O131        O  0.05368484  0.17742289  0.45404089    -0.80600
O132        O  0.93850015  0.17112063  0.54104903    -0.80600
O133        O  0.88892399  0.23446809  0.53582905    -0.80700
O134        O  0.10395301  0.23847998  0.46791504    -0.80600
O135        O  0.04409164  0.16991882  0.55550305    -0.80600
O136        O  0.95010017  0.17894786  0.44017447    -0.80700
Co137      Co  0.06545210  0.28221326  0.51411527     1.51500
Co138      Co  0.92721139  0.28390404  0.49628754     1.51700
Co139      Co  0.00526050  0.22576429  0.43045534     1.51600
Co140      Co  0.98802955  0.21502370  0.57103944     1.51500
O141        O  0.99642079  0.25187556  0.50304546    -1.42600
C142        C  0.08578168  0.18757081  0.56551030     1.09000
C143        C  0.90807797  0.19681466  0.43269745     1.09100
C144        C  0.09684663  0.19343844  0.45777904     1.09000
C145        C  0.89538694  0.18838956  0.53929865     1.09000
O146        O  0.02667396  0.73904142  0.38590079    -0.80600
O147        O  0.97212508  0.73604296  0.61148658    -0.80600
O148        O  0.06253700  0.67760173  0.54247690    -0.80600
O149        O  0.94532760  0.67129082  0.45747159    -0.80600
O150        O  0.06339732  0.74127888  0.59303196    -0.80700
O151        O  0.93581028  0.73284494  0.40529244    -0.80600
O152        O  0.96365251  0.67312700  0.56172694    -0.80600
O153        O  0.04335617  0.67681472  0.43513889    -0.80700
C154        C  0.03845016  0.69422735  0.39149890     1.09100
C155        C  0.96610059  0.69011415  0.60543677     1.09000
C156        C  0.07283949  0.69646424  0.58434978     1.09100
C157        C  0.93285140  0.68733237  0.41532221     1.09000
O158        O  0.93298609  0.82535916  0.45729515    -0.80600
O159        O  0.05634038  0.83219271  0.53894056    -0.80700
O160        O  0.08962633  0.77184704  0.43195493    -0.80600
O161        O  0.90591573  0.76237698  0.56565641    -0.80600
O162        O  0.95254545  0.82734946  0.55712682    -0.80700
O163        O  0.03666320  0.83202091  0.43875103    -0.80600
O164        O  0.88811285  0.76007012  0.47242091    -0.80600
O165        O  0.10757385  0.77170122  0.52484078    -0.80700
Co166      Co  0.98442552  0.78228624  0.42874287     1.51500
Co167      Co  0.00968160  0.78403558  0.56839245     1.51700
Co168      Co  0.06889002  0.72414651  0.48494507     1.51600
Co169      Co  0.93226180  0.71718590  0.51301526     1.51500
O170        O  0.99889818  0.75190159  0.49876334    -1.42600
C171        C  0.89127862  0.80540328  0.46122293     1.09000
C172        C  0.09987997  0.81665041  0.53437906     1.09100
C173        C  0.07955425  0.81728407  0.42860739     1.09000
C174        C  0.91130636  0.80863282  0.56751913     1.09000
C175        C  0.64059855  0.93827974  0.65192431    -0.20400
C176        C  0.64184382  0.91227994  0.60697750     0.35900
C177        C  0.68702394  0.89788985  0.58640395    -0.26300
C178        C  0.73084915  0.90952270  0.60979570     0.02300
C179        C  0.72959738  0.93923912  0.65255912     0.27100
C180        C  0.68479796  0.95297241  0.67283771    -0.25500
N181        N  0.59768394  0.89784214  0.58381565    -0.82800
H182        H  0.68777850  0.87503796  0.55381024     0.12900
C183        C  0.77595300  0.88296622  0.59577670     0.02300
N184        N  0.77263150  0.95296929  0.67880593    -0.81400
H185        H  0.68479825  0.97382593  0.70695919     0.17700
C186        C  0.81112130  0.90521296  0.56501086    -0.26300
C187        C  0.85769283  0.88427875  0.55866524     0.35800
C188        C  0.86768861  0.83825662  0.58055135    -0.20300
C189        C  0.83171889  0.81578344  0.61037865    -0.25500
C190        C  0.78663205  0.83779205  0.61864292     0.27100
H191        H  0.80239988  0.93903636  0.54625333     0.12900
N192        N  0.89386229  0.90861970  0.52863611    -0.82800
H193        H  0.83861201  0.78043960  0.62742075     0.17800
N194        N  0.75215652  0.81342709  0.65048081    -0.81400
H195        H  0.87992816  0.94114531  0.51389235     0.33400
H196        H  0.92208821  0.91888601  0.55190405     0.37900
H197        H  0.72062696  0.80689251  0.63043150     0.33300
H198        H  0.74346321  0.83664962  0.68005677     0.30000
H199        H  0.80428423  0.94203995  0.66024806     0.33400
H200        H  0.77369375  0.99128002  0.68026664     0.30000
H201        H  0.59748187  0.85956907  0.58114729     0.37900
H202        H  0.59792037  0.91222911  0.54789127     0.33400
C203        C  0.35954370  0.93319697  0.65130578    -0.20400
C204        C  0.35668657  0.93930057  0.59931886     0.35900
C205        C  0.31231413  0.93068829  0.57540043    -0.26300
C206        C  0.27031727  0.91640871  0.60221002     0.02300
C207        C  0.27324976  0.91017371  0.65370696     0.27100
C208        C  0.31717152  0.91853775  0.67745980    -0.25500
N209        N  0.39776397  0.95413627  0.56988628    -0.82800
H210        H  0.31078173  0.93424970  0.53547693     0.12900
C211        C  0.22631529  0.89918708  0.57601512     0.02300
N212        N  0.23217123  0.89293325  0.68195852    -0.81400
H213        H  0.31781575  0.91288534  0.71716996     0.17700
C214        C  0.23117745  0.85810169  0.54553779    -0.26300
C215        C  0.19040577  0.83245888  0.52928127     0.35800
C216        C  0.14299855  0.84825140  0.54330933    -0.20300
C217        C  0.13809982  0.89168781  0.57065314    -0.25500
C218        C  0.17925677  0.91722234  0.58701944     0.27100
H219        H  0.26704042  0.84381546  0.53679205     0.12900
N220        N  0.19779450  0.78919683  0.50005124    -0.82800
H221        H  0.10230172  0.90474774  0.58138362     0.17800
N222        N  0.17295177  0.96061775  0.61602104    -0.81400
H223        H  0.21844541  0.79879588  0.46875232     0.33400
H224        H  0.21828396  0.76438028  0.52068385     0.37900
H225        H  0.15181726  0.98503855  0.59568238     0.33300
H226        H  0.15290378  0.95127802  0.64783926     0.30000
H227        H  0.24181367  0.85998847  0.69915208     0.33400
H228        H  0.22445233  0.91859833  0.70968794     0.30000
H229        H  0.42522820  0.92801310  0.57396182     0.37900
H230        H  0.41008067  0.98788688  0.58301449     0.33400
C231        C  0.85125890  0.15686338  0.54339559    -0.20400
C232        C  0.80470537  0.17568802  0.53137242     0.35900
C233        C  0.76276793  0.14908686  0.54369535    -0.26300
C234        C  0.76577694  0.10441928  0.56874220     0.02300
C235        C  0.81190430  0.08337390  0.57692102     0.27100
C236        C  0.85430239  0.10950371  0.56359284    -0.25500
N237        N  0.79937097  0.22285937  0.50848274    -0.82800
H238        H  0.72752093  0.16547820  0.53733616     0.12900
C239        C  0.72173929  0.08663851  0.59564739     0.02300
N240        N  0.81524255  0.03701100  0.60183337    -0.81400
H241        H  0.88954387  0.09429042  0.57220739     0.17700
C242        C  0.67979533  0.07206198  0.57028875    -0.26300
C243        C  0.63635368  0.06041833  0.59639774     0.35800
C244        C  0.63479921  0.06375210  0.64854863    -0.20300
C245        C  0.67764086  0.07687407  0.67316560    -0.25500
C246        C  0.72023647  0.08951212  0.64759697     0.27100
H247        H  0.68073331  0.07002579  0.53022032     0.12900
N248        N  0.59468088  0.04419917  0.56996686    -0.82800
H249        H  0.67826245  0.07763773  0.71312457     0.17800
N250        N  0.76181131  0.10659223  0.67430661    -0.81400
H251        H  0.58553490  0.07154344  0.54452553     0.33400
H252        H  0.60448643  0.01277594  0.55004013     0.37900
H253        H  0.76760565  0.14330765  0.66452671     0.33300
H254        H  0.75495663  0.10613827  0.71248431     0.30000
H255        H  0.79677172  0.01158575  0.58040315     0.33400
H256        H  0.85138224  0.02537557  0.60343703     0.30000
H257        H  0.77892710  0.24510312  0.53242326     0.37900
H258        H  0.77953822  0.21841209  0.47611454     0.33400
C259        C  0.12836298  0.15809821  0.58210757    -0.20400
C260        C  0.13831354  0.10961064  0.56679728     0.35900
C261        C  0.18412885  0.08843540  0.57684441    -0.26300
C262        C  0.21946911  0.11433308  0.60340424     0.02300
C263        C  0.20831966  0.16174747  0.62079837     0.27100
C264        C  0.16362614  0.18293857  0.60990891    -0.25500
N265        N  0.10267345  0.08213487  0.54059891    -0.82800
H266        H  0.19240164  0.05191438  0.56357837     0.12900
C267        C  0.26578444  0.09045413  0.61792388     0.02300
N268        N  0.24161592  0.18913941  0.65025120    -0.81400
H269        H  0.15672259  0.21988542  0.62304209     0.17700
C270        C  0.31030744  0.10594398  0.59698082    -0.26300
C271        C  0.35493982  0.09136389  0.61703132     0.35800
C272        C  0.35531508  0.06080704  0.65944770    -0.20300
C273        C  0.31053609  0.04405288  0.67893744    -0.25500
C274        C  0.26624696  0.05874904  0.65887776     0.27100
H275        H  0.31042139  0.13200895  0.56688793     0.12900
N276        N  0.39875336  0.11077318  0.59554684    -0.82800
H277        H  0.30960534  0.02078796  0.71153643     0.17800
N278        N  0.22164761  0.04440501  0.68265878    -0.81400
H279        H  0.42048905  0.08150791  0.58369681     0.33400
H280        H  0.41717792  0.13036012  0.62270173     0.37900
H281        H  0.22119155  0.00615960  0.68481433     0.33300
H282        H  0.22182643  0.05780931  0.71889232     0.30000
H283        H  0.27360997  0.19465091  0.62971761     0.33400
H284        H  0.24970907  0.16856538  0.68180567     0.30000
H285        H  0.11834883  0.07018984  0.50731386     0.37900
H286        H  0.09427045  0.05092020  0.56159777     0.33400
C287        C  0.62093174  0.91484819  0.35354755    -0.20400
C288        C  0.64900068  0.87538388  0.33486393     0.35900
C289        C  0.69183829  0.86171246  0.35875840    -0.26300
C290        C  0.70741360  0.88658414  0.40091692     0.02300
C291        C  0.67861943  0.92467358  0.42083154     0.27100
C292        C  0.63506569  0.93808918  0.39744668    -0.25500
N293        N  0.63428282  0.85002850  0.29090823    -0.82800
H294        H  0.71377737  0.83197444  0.34397319     0.12900
C295        C  0.75397499  0.87124085  0.42315679     0.02300
N296        N  0.69420948  0.95057552  0.46382410    -0.81400
H297        H  0.61401033  0.96863068  0.41181190     0.17700
C298        C  0.79740028  0.89456945  0.40856505    -0.26300
C299        C  0.84291556  0.87510918  0.42182083     0.35800
C300        C  0.84509099  0.83216859  0.45112122    -0.20300
C301        C  0.80115965  0.81079811  0.46782326    -0.25500
C302        C  0.75613290  0.82907374  0.45329325     0.27100
H303        H  0.79600705  0.92654716  0.38466754     0.12900
N304        N  0.88651832  0.89770114  0.40341945    -0.82800
H305        H  0.80164578  0.77804326  0.49065346     0.17800
N306        N  0.71316191  0.80260806  0.46753837    -0.81400
H307        H  0.88670145  0.93418628  0.41531224     0.33400
H308        H  0.88542879  0.89777745  0.36473677     0.37900
H309        H  0.69647055  0.78990269  0.43551996     0.33300
H310        H  0.68922166  0.82679709  0.48522315     0.30000
H311        H  0.69787507  0.98765109  0.45439366     0.33400
H312        H  0.66679026  0.94779481  0.49084814     0.30000
H313        H  0.60130732  0.83260689  0.29907998     0.37900
H314        H  0.65910107  0.82237083  0.28161903     0.33400
C315        C  0.34755322  0.95186170  0.34997183    -0.20400
C316        C  0.34410643  0.92314364  0.39333754     0.35900
C317        C  0.29787547  0.91110573  0.41306882    -0.26300
C318        C  0.25521320  0.92751620  0.39007809     0.02300
C319        C  0.25893408  0.95954226  0.34952776     0.27100
C320        C  0.30469122  0.97165089  0.33013850    -0.25500
N321        N  0.38688859  0.90363556  0.41553129    -0.82800
H322        H  0.29518154  0.88593973  0.44412927     0.12900
C323        C  0.20879096  0.90137321  0.39937971     0.02300
N324        N  0.21615947  0.97631402  0.32510727    -0.81400
H325        H  0.30640884  0.99494079  0.29756391     0.17700
C326        C  0.16884284  0.92470188  0.42232195    -0.26300
C327        C  0.12442004  0.89952551  0.42953536     0.35800
C328        C  0.12020107  0.85038548  0.41369810    -0.20300
C329        C  0.15944218  0.82885420  0.38783305    -0.25500
C330        C  0.20341405  0.85362668  0.38058283     0.27100
H331        H  0.17234863  0.96219714  0.43507735     0.12900
N332        N  0.08442889  0.92354171  0.45374622    -0.82800
H333        H  0.15638196  0.79159725  0.37427647     0.17800
N334        N  0.24309729  0.83017462  0.35465473    -0.81400
H335        H  0.09590564  0.93564742  0.48832374     0.33400
H336        H  0.07560113  0.95457205  0.43287803     0.37900
H337        H  0.23362895  0.79459150  0.34408238     0.33300
H338        H  0.24963797  0.84986027  0.32195091     0.30000
H339        H  0.21760268  0.01458876  0.32325947     0.33400
H340        H  0.21725761  0.96311073  0.28879244     0.30000
H341        H  0.38409411  0.86536699  0.41581325     0.37900
H342        H  0.38755724  0.91557895  0.45228029     0.33400
C343        C  0.64237075  0.05512665  0.34938879    -0.20400
C344        C  0.68760921  0.03364940  0.33581329     0.35900
C345        C  0.73096560  0.05137851  0.35575427    -0.26300
C346        C  0.73083761  0.09147322  0.38793115     0.02300
C347        C  0.68582323  0.11158234  0.40344782     0.27100
C348        C  0.64196550  0.09276173  0.38480742    -0.25500
N349        N  0.69008832  0.99497646  0.30002134    -0.82800
H350        H  0.76523579  0.03576693  0.34332584     0.12900
C351        C  0.77782590  0.11626708  0.39869203     0.02300
N352        N  0.68471103  0.15237566  0.43674764    -0.81400
H353        H  0.60792959  0.11008489  0.39530061     0.17700
C354        C  0.78491170  0.16407275  0.38090675    -0.26300
C355        C  0.82842608  0.18929641  0.38882883     0.35800
C356        C  0.86634652  0.16673991  0.41537997    -0.20300
C357        C  0.86056908  0.11762419  0.43060490    -0.25500
C358        C  0.81639570  0.09228566  0.42295723     0.27100
H359        H  0.75624917  0.18214283  0.36065501     0.12900
N360        N  0.83373229  0.23830475  0.37009338    -0.82800
H361        H  0.88936489  0.09999176  0.45098506     0.17800
N362        N  0.81009923  0.04289748  0.44073997    -0.81400
H363        H  0.80596674  0.25984655  0.38549425     0.33400
H364        H  0.82914555  0.23743866  0.33174404     0.37900
H365        H  0.84161548  0.03062818  0.45802409     0.33300
H366        H  0.78271208  0.04343285  0.46797130     0.30000
H367        H  0.66728987  0.18156329  0.41914030     0.33400
H368        H  0.66376487  0.14243512  0.46776976     0.30000
H369        H  0.70807350  0.96522218  0.31597528     0.37900
H370        H  0.71128340  0.00715939  0.27000121     0.33400
C371        C  0.14039133  0.16183647  0.44995341    -0.20400
C372        C  0.14021939  0.11880384  0.42078579     0.35900
C373        C  0.18465163  0.09502222  0.40970632    -0.26300
C374        C  0.22899005  0.11422017  0.42599354     0.02300
C375        C  0.22860935  0.15581856  0.45675732     0.27100
C376        C  0.18468743  0.17824506  0.46937100    -0.25500
N377        N  0.09561694  0.10050662  0.40093200    -0.82800
H378        H  0.18498611  0.06346059  0.38555718     0.12900
C379        C  0.27505000  0.09909635  0.40146595     0.02300
N380        N  0.27275221  0.17848722  0.47230411    -0.81400
H381        H  0.18571330  0.21073840  0.49239508     0.17700
C382        C  0.28768576  0.12347805  0.35760943    -0.26300
C383        C  0.33207903  0.11472401  0.33368128     0.35800
C384        C  0.36530118  0.08083814  0.35368148    -0.20300
C385        C  0.35362870  0.05757092  0.39891881    -0.25500
C386        C  0.30806981  0.06563046  0.42259356     0.27100
H387        H  0.26285850  0.15002951  0.34193524     0.12900
N388        N  0.34344819  0.14069410  0.28879341    -0.82800
H389        H  0.37862683  0.03095137  0.41406013     0.17800
N390        N  0.29441437  0.03853558  0.46635954    -0.81400
H391        H  0.31673331  0.13252732  0.26295552     0.33400
H392        H  0.34161550  0.17827773  0.29628328     0.37900
H393        H  0.32225757  0.01452965  0.47637472     0.33300
H394        H  0.29012546  0.06342146  0.49544699     0.30000
H395        H  0.29187952  0.19054670  0.44085789     0.33400
H396        H  0.29387555  0.15193251  0.48956861     0.30000
H397        H  0.10180914  0.06799842  0.38133230     0.37900
H398        H  0.08331085  0.12625414  0.37522433     0.33400
C399        C  0.65588105  0.64266305  0.07173811    -0.17400
C400        C  0.60582326  0.64613037  0.06200947     0.35900
C401        C  0.58058233  0.68975245  0.07366716    -0.26300
C402        C  0.60483959  0.72994545  0.09451204     0.02300
C403        C  0.65482403  0.72609927  0.10448578     0.27100
C404        C  0.67961238  0.68309813  0.09278272    -0.25500
N405        N  0.58077710  0.60606897  0.03963782    -0.82800
H406        H  0.54190080  0.69203133  0.06712780     0.12900
C407        C  0.57717635  0.77246295  0.11375053     0.02300
N408        N  0.68097894  0.76455055  0.12855761    -0.81400
H409        H  0.71797194  0.68116119  0.10108230     0.17700
C410        C  0.55302361  0.76675105  0.15915931    -0.26300
C411        C  0.53806331  0.80756497  0.18668033     0.35800
C412        C  0.54716767  0.85563694  0.16836505    -0.20300
C413        C  0.56737762  0.86100016  0.12055277    -0.25500
C414        C  0.58240250  0.81971449  0.09314403     0.27100
H415        H  0.54865881  0.73037986  0.17499705     0.12900
N416        N  0.51520539  0.79962343  0.23403863    -0.82800
H417        H  0.57362839  0.89728476  0.10526279     0.17800
N418        N  0.60447037  0.82588308  0.04521170    -0.81400
H419        H  0.53921967  0.77980219  0.25609172     0.33400
H420        H  0.48445378  0.77785275  0.22891750     0.37900
H421        H  0.57958861  0.84405579  0.02275435     0.33300
H422        H  0.63474841  0.84866987  0.04879013     0.30000
H423        H  0.67984798  0.79606206  0.10654507     0.33400
H424        H  0.66402402  0.77202779  0.16260148     0.30000
H425        H  0.55222312  0.59568675  0.06335893     0.37900
H426        H  0.56576218  0.61867693  0.00661679     0.33400
C427        C  0.65950654  0.35861348  0.06751204    -0.20400
C428        C  0.60863772  0.35732464  0.07519027     0.35900
C429        C  0.58606524  0.31255536  0.08893838    -0.26300
C430        C  0.61315695  0.26904632  0.09436874     0.02300
C431        C  0.66349237  0.27001203  0.08500228     0.27100
C432        C  0.68585988  0.31431351  0.07163345    -0.25500
N433        N  0.58016948  0.40111460  0.06961230    -0.82800
H434        H  0.54733478  0.31165936  0.09646465     0.12900
C435        C  0.59060800  0.22442860  0.11676026     0.02300
N436        N  0.69205863  0.22612693  0.09038722    -0.81400
H437        H  0.72480237  0.31404865  0.06544457     0.17700
C438        C  0.59163344  0.17899948  0.09186869    -0.26300
C439        C  0.57937255  0.13489514  0.11679767     0.35800
C440        C  0.56648128  0.13614535  0.16754146    -0.20300
C441        C  0.56317123  0.18224838  0.19103372    -0.25500
C442        C  0.57499930  0.22580268  0.16636457     0.27100
H443        H  0.60371261  0.17760453  0.05352995     0.12900
N444        N  0.58149784  0.08920853  0.09084821    -0.82800
H445        H  0.55250726  0.18486609  0.22968721     0.17800
N446        N  0.57378649  0.27132198  0.19281821    -0.81400
H447        H  0.61676577  0.08481282  0.07667184     0.33400
H448        H  0.55787151  0.09142581  0.06096175     0.37900
H449        H  0.53835978  0.27685769  0.20609023     0.33300
H450        H  0.59666256  0.26822291  0.22323497     0.30000
H451        H  0.72848323  0.23276548  0.08115813     0.33400
H452        H  0.69112730  0.21621107  0.12781495     0.30000
H453        H  0.58200191  0.41122298  0.03225526     0.37900
H454        H  0.54359060  0.39397036  0.07769422     0.33400
C455        C  0.56989068  0.85801096  0.83266835    -0.20400
C456        C  0.55725154  0.84985603  0.88284647     0.35900
C457        C  0.56972540  0.80489625  0.90581058    -0.26300
C458        C  0.59439594  0.76776978  0.87927670     0.02300
C459        C  0.60794993  0.77665047  0.82969884     0.27100
C460        C  0.59613603  0.82135414  0.80720652    -0.25500
N461        N  0.53086493  0.88632577  0.91018078    -0.82800
H462        H  0.55982184  0.79875831  0.94428211     0.12900
C463        C  0.61055786  0.72159003  0.90399475     0.02300
N464        N  0.63449961  0.74040256  0.80209766    -0.81400
H465        H  0.60687543  0.82694240  0.76882578     0.17700
C466        C  0.59452791  0.67556063  0.88687684    -0.26300
C467        C  0.61675796  0.63145857  0.90244638     0.35800
C468        C  0.65574148  0.63324597  0.93553274    -0.20300
C469        C  0.66951474  0.67924260  0.95464951    -0.25500
C470        C  0.64749558  0.72313495  0.93941158     0.27100
H471        H  0.56621771  0.67406661  0.85946209     0.12900
N472        N  0.60163468  0.58552744  0.88226009    -0.82800
H473        H  0.69940547  0.68129937  0.98018645     0.17800
N474        N  0.66438647  0.76949192  0.95780784    -0.81400
H475        H  0.56472319  0.58097611  0.89067743     0.33400
H476        H  0.60558330  0.58745023  0.84374086     0.37900
H477        H  0.69126313  0.76427308  0.98427304     0.33300
H478        H  0.68075124  0.78838120  0.92823896     0.30000
H479        H  0.61432565  0.73135664  0.77091434     0.33400
H480        H  0.66722369  0.75609558  0.78994684     0.30000
H481        H  0.55141880  0.89592237  0.94092588     0.37900
H482        H  0.49849644  0.87050542  0.92314389     0.33400
C483        C  0.65646732  0.37694996  0.90205046    -0.20400
C484        C  0.63222523  0.37115301  0.85675872     0.35900
C485        C  0.61115337  0.32522822  0.84485723    -0.26300
C486        C  0.61362022  0.28473800  0.87755103     0.02300
C487        C  0.63672316  0.29100748  0.92296185     0.27100
C488        C  0.65710491  0.33642748  0.93486306    -0.25500
N489        N  0.63003090  0.41095160  0.82220601    -0.82800
H490        H  0.59397444  0.32074439  0.80931471     0.12900
C491        C  0.59848297  0.23455001  0.86145029     0.02300
N492        N  0.64219729  0.25032978  0.95610226    -0.81400
H493        H  0.67604384  0.33865146  0.96946265     0.17700
C494        C  0.62193967  0.21421696  0.82012720    -0.26300
C495        C  0.61077105  0.16686298  0.80376746     0.35800
C496        C  0.57487847  0.13841776  0.82841218    -0.20300
C497        C  0.55329283  0.15736808  0.87179272    -0.25500
C498        C  0.56456480  0.20531678  0.88828008     0.27100
H499        H  0.64947858  0.23524884  0.80034870     0.12900
N500        N  0.63614803  0.14764629  0.76150579    -0.82800
H501        H  0.52580983  0.13619916  0.89137868     0.17800
N502        N  0.54059248  0.22466787  0.93140491    -0.81400
H503        H  0.63033460  0.17118735  0.73153604     0.33400
H504        H  0.67328262  0.14791833  0.76912521     0.37900
H505        H  0.50321246  0.22392452  0.92556563     0.33300
H506        H  0.54781413  0.20128954  0.96116557     0.30000
H507        H  0.67923331  0.24524794  0.96247303     0.33400
H508        H  0.62524941  0.25950397  0.98964509     0.30000
H509        H  0.64630995  0.39946859  0.78899023     0.37900
H510        H  0.59345366  0.41829120  0.81539210     0.33400
C511        C  0.95804713  0.65826432  0.64997403    -0.20400
C512        C  0.96752086  0.67566192  0.69830536     0.35900
C513        C  0.95153366  0.64884869  0.73990505    -0.26300
C514        C  0.92720723  0.60401047  0.73475023     0.02300
C515        C  0.92282043  0.58389817  0.68683506     0.27100
C516        C  0.93788494  0.61117073  0.64497185    -0.25500
N517        N  0.99282690  0.72095515  0.70557303    -0.82800
H518        H  0.95583488  0.66469818  0.77632464     0.12900
C519        C  0.89965219  0.58338669  0.77814853     0.02300
N520        N  0.90205136  0.53615689  0.68056754    -0.81400
H521        H  0.93195973  0.59614990  0.60845691     0.17700
C522        C  0.84974607  0.57556432  0.77309842    -0.26300
C523        C  0.82008512  0.56268271  0.81359350     0.35800
C524        C  0.84015299  0.55758584  0.86149737    -0.20300
C525        C  0.89060045  0.56416570  0.86643436    -0.25500
C526        C  0.92037164  0.57682361  0.82525634     0.27100
H527        H  0.83293926  0.58146596  0.73753396     0.12900
N528        N  0.76912308  0.55635659  0.80558150    -0.82800
H529        H  0.90704718  0.55979619  0.90236958     0.17800
N530        N  0.97160727  0.58275974  0.83136001    -0.81400
H531        H  0.76473771  0.52864897  0.77930113     0.33400
H532        H  0.75535908  0.58900189  0.79093263     0.37900
H533        H  0.98551527  0.54981479  0.84514571     0.33300
H534        H  0.97705862  0.60999116  0.85791010     0.30000
H535        H  0.87192169  0.53952826  0.65768407     0.33400
H536        H  0.92772004  0.51409282  0.66237313     0.30000
H537        H  0.97039386  0.74426469  0.72641921     0.37900
H538        H  0.02387931  0.71355732  0.72615723     0.33400
C539        C  0.83265735  0.56067945  0.14896087    -0.20400
C540        C  0.87948410  0.58141046  0.15084071     0.35900
C541        C  0.89951481  0.59298797  0.19723780    -0.26300
C542        C  0.87338527  0.58397280  0.24156016     0.02300
C543        C  0.82850020  0.55913596  0.23967091     0.27100
C544        C  0.80922113  0.54758839  0.19380829    -0.25500
N545        N  0.90589775  0.59252253  0.10619725    -0.82800
H546        H  0.93420885  0.61169630  0.19852007     0.12900
C547        C  0.88858344  0.60788126  0.28798476     0.02300
N548        N  0.79993323  0.54767799  0.28326750    -0.81400
H549        H  0.77408928  0.52966174  0.19363478     0.17700
C550        C  0.86036320  0.64691318  0.30606117    -0.26300
C551        C  0.87216511  0.67059454  0.35024109     0.35800
C552        C  0.91338257  0.65521948  0.37664589    -0.20300
C553        C  0.94005705  0.61442820  0.36013141    -0.25500
C554        C  0.92822278  0.59103161  0.31553886     0.27100
H555        H  0.82910976  0.65902768  0.28534810     0.12900
N556        N  0.84295521  0.71078707  0.36819009    -0.82800
H557        H  0.97161005  0.60237755  0.38035855     0.17800
N558        N  0.95650701  0.55038764  0.29826663    -0.81400
H559        H  0.81407487  0.71764123  0.34442107     0.33400
H560        H  0.82758507  0.70011037  0.40217223     0.37900
H561        H  0.99253314  0.56200844  0.29418414     0.33300
H562        H  0.95521958  0.52318414  0.32560405     0.30000
H563        H  0.79319906  0.50993912  0.28315075     0.33400
H564        H  0.81893484  0.55459022  0.31565009     0.30000
H565        H  0.91346595  0.63012097  0.10588272     0.37900
H566        H  0.93896019  0.57366819  0.10720521     0.33400
C567        C  0.92348900  0.33110717  0.64481550    -0.20400
C568        C  0.89309448  0.37268832  0.64886596     0.35900
C569        C  0.87730291  0.38825440  0.69645628    -0.26300
C570        C  0.89211668  0.36326134  0.73939478     0.02300
C571        C  0.92512467  0.32414854  0.73502104     0.27100
C572        C  0.93996754  0.30844727  0.68838110    -0.25500
N573        N  0.87611892  0.39691043  0.60511717    -0.82800
H574        H  0.85224688  0.41875327  0.70004391     0.12900
C575        C  0.87127576  0.37551782  0.78865225     0.02300
N576        N  0.94348772  0.29894940  0.77749066    -0.81400
H577        H  0.96346941  0.27661735  0.68636332     0.17700
C578        C  0.83679932  0.34363147  0.81011720    -0.26300
C579        C  0.81874121  0.35155277  0.85830379     0.35800
C580        C  0.83593927  0.39144544  0.88591485    -0.20300
C581        C  0.87079387  0.42307003  0.86454411    -0.25500
C582        C  0.88838467  0.41563675  0.81621309     0.27100
H583        H  0.82351192  0.31271128  0.78908352     0.12900
N584        N  0.78088575  0.32082838  0.87802984    -0.82800
H585        H  0.88253494  0.45517080  0.88472216     0.17800
N586        N  0.92261496  0.44985562  0.79552196    -0.81400
H587        H  0.75124073  0.32289460  0.85433676     0.33400
H588        H  0.79345314  0.28461918  0.87792580     0.37900
H589        H  0.90695721  0.46629880  0.76461038     0.33300
H590        H  0.95329684  0.43053167  0.78339521     0.30000
H591        H  0.91450016  0.28299596  0.79701761     0.33400
H592        H  0.96021112  0.32462474  0.80032663     0.30000
H593        H  0.90627031  0.41287273  0.58747916     0.37900
H594        H  0.85275657  0.42574454  0.61467435     0.33400
C595        C  0.83756321  0.42898163  0.13591533    -0.20400
C596        C  0.81750708  0.39839442  0.17332332     0.35900
C597        C  0.84220879  0.39091029  0.21766943    -0.26300
C598        C  0.88745458  0.41254047  0.22583135     0.02300
C599        C  0.90908765  0.44130698  0.18777183     0.27100
C600        C  0.88387220  0.44929890  0.14303142    -0.25500
N601        N  0.77175849  0.37448006  0.16622326    -0.82800
H602        H  0.82613736  0.36729840  0.24582089     0.12900
C603        C  0.91294571  0.39939148  0.27241765     0.02300
N604        N  0.95610015  0.46271804  0.19498528    -0.81400
H605        H  0.89934059  0.47312400  0.11477466     0.17700
C606        C  0.95059675  0.36510430  0.26974549    -0.26300
C607        C  0.96706696  0.34114863  0.31240182     0.35800
C608        C  0.94667516  0.35244181  0.35963104    -0.20300
C609        C  0.91197826  0.39016657  0.36273734    -0.25500
C610        C  0.89448543  0.41304433  0.31948346     0.27100
H611        H  0.96496787  0.35414509  0.23385909     0.12900
N612        N  0.00330220  0.30371688  0.30706670    -0.82800
H613        H  0.89576255  0.39941483  0.39829546     0.17800
N614        N  0.85658833  0.44878701  0.32327624    -0.81400
H615        H  0.03359229  0.31911053  0.28919161     0.33400
H616        H  0.98960153  0.27641054  0.28400648     0.37900
H617        H  0.82672036  0.43244561  0.34106896     0.33300
H618        H  0.86881509  0.47736647  0.34564297     0.30000
H619        H  0.96679859  0.48302275  0.16378335     0.33400
H620        H  0.95280936  0.48763690  0.22413511     0.30000
H621        H  0.77711081  0.33660618  0.16929899     0.37900
H622        H  0.74800505  0.38536444  0.19469508     0.33400
C623        C  0.35809096  0.60209632  0.88484894    -0.20400
C624        C  0.39128507  0.62485346  0.91699282     0.35900
C625        C  0.40729778  0.67306676  0.90727304    -0.26300
C626        C  0.39137995  0.69868521  0.86552721     0.02300
C627        C  0.36098567  0.67463802  0.83142724     0.27100
C628        C  0.34454706  0.62658439  0.84151102    -0.25500
N629        N  0.40711074  0.59927160  0.96046412    -0.82800
H630        H  0.43200012  0.69086038  0.93242997     0.12900
C631        C  0.41015681  0.74895150  0.85507423     0.02300
N632        N  0.34579810  0.69977685  0.78741530    -0.81400
H633        H  0.31816508  0.60974795  0.81747588     0.17700
C634        C  0.44244323  0.75455370  0.81543646    -0.26300
C635        C  0.45714760  0.80096904  0.79925405     0.35800
C636        C  0.43991249  0.84416208  0.82357023    -0.20300
C637        C  0.40975198  0.83839710  0.86568805    -0.25500
C638        C  0.39457413  0.79101565  0.88139715     0.27100
H639        H  0.45503678  0.72240974  0.79541433     0.12900
N640        N  0.48803990  0.80368074  0.75614350    -0.82800
H641        H  0.39565918  0.87052189  0.88457718     0.17800
N642        N  0.36178922  0.78584148  0.92265599    -0.81400
H643        H  0.46951265  0.78808460  0.72654453     0.33400
H644        H  0.51875072  0.78213017  0.76231550     0.37900
H645        H  0.37813069  0.80168967  0.95343187     0.33300
H646        H  0.33033027  0.80580502  0.91501011     0.30000
H647        H  0.32364648  0.67712749  0.76619449     0.33400
H648        H  0.32443403  0.72965319  0.79845046     0.30000
H649        H  0.42642973  0.56827617  0.94872201     0.37900
H650        H  0.43136823  0.62087187  0.98035890     0.33400
C651        C  0.43643466  0.13251653  0.84180178    -0.20400
C652        C  0.41133427  0.13060311  0.88772877     0.35900
C653        C  0.39721142  0.17494467  0.91108024    -0.26300
C654        C  0.40783342  0.22104618  0.88960897     0.02300
C655        C  0.43487450  0.22264217  0.84519097     0.27100
C656        C  0.44906945  0.17893747  0.82213883    -0.25500
N657        N  0.39793789  0.08415842  0.90913938    -0.82800
H658        H  0.37603803  0.17359895  0.94515642     0.12900
C659        C  0.38509788  0.26676349  0.90966798     0.02300
N660        N  0.44579811  0.26866123  0.82178660    -0.81400
H661        H  0.46907906  0.18165930  0.78738670     0.17700
C662        C  0.41322286  0.30857100  0.92066926    -0.26300
C663        C  0.39108262  0.35359015  0.93419170     0.35800
C664        C  0.34000220  0.35697198  0.93697269    -0.20300
C665        C  0.31252188  0.31462810  0.92641360    -0.25500
C666        C  0.33429409  0.27031171  0.91281633     0.27100
H667        H  0.45247359  0.30643693  0.91811382     0.12900
N668        N  0.42055242  0.39530260  0.94514945    -0.82800
H669        H  0.27319192  0.31565348  0.92783760     0.17800
N670        N  0.30430767  0.22933740  0.90022301    -0.81400
H671        H  0.44346638  0.38575489  0.97416673     0.33400
H672        H  0.44226183  0.40292190  0.91398947     0.37900
H673        H  0.28210844  0.22104040  0.93084945     0.33300
H674        H  0.28195220  0.23989359  0.87109260     0.30000
H675        H  0.48352363  0.27129044  0.81753836     0.33400
H676        H  0.43059519  0.26855170  0.78653268     0.30000
H677        H  0.42998086  0.06644226  0.91931036     0.37900
H678        H  0.37777830  0.08935230  0.94181917     0.33400
C679        C  0.42098895  0.86825837  0.16744610    -0.20400
C680        C  0.43025090  0.86564911  0.11597140     0.35900
C681        C  0.42098647  0.82155864  0.09032825    -0.26300
C682        C  0.40249292  0.78000940  0.11531384     0.02300
C683        C  0.39220898  0.78314349  0.16629170     0.27100
C684        C  0.40132960  0.82675030  0.19163631    -0.25500
N685        N  0.44938549  0.90718905  0.08969121    -0.82800
H686        H  0.42803397  0.81979523  0.05079438     0.12900
C687        C  0.38867736  0.73491232  0.08790795     0.02300
N688        N  0.37125758  0.74226113  0.19237173    -0.81400
H689        H  0.39308997  0.82775095  0.23098141     0.17700
C690        C  0.40958004  0.68946331  0.10034822    -0.26300
C691        C  0.38944036  0.64481249  0.08383268     0.35800
C692        C  0.34800330  0.64588889  0.05344576    -0.20300
C693        C  0.33042445  0.69179429  0.03741150    -0.25500
C694        C  0.34951134  0.73605031  0.05509429     0.27100
H695        H  0.43990830  0.68882527  0.12548423     0.12900
N696        N  0.40975953  0.59884993  0.09954199    -0.82800
H697        H  0.29952647  0.69333937  0.01307511     0.17800
N698        N  0.32731982  0.78205299  0.04219878    -0.81400
H699        H  0.44115520  0.60470768  0.12003527     0.33400
H700        H  0.38462394  0.58229576  0.12368139     0.37900
H701        H  0.29894052  0.77662099  0.01750009     0.33300
H702        H  0.31167752  0.79674876  0.07441104     0.30000
H703        H  0.39442679  0.73272634  0.22118384     0.33400
H704        H  0.33813559  0.75353287  0.20800178     0.30000
H705        H  0.42485711  0.91652312  0.06201775     0.37900
H706        H  0.48191719  0.89665513  0.07235231     0.33400
C707        C  0.34734332  0.36380329  0.06716007    -0.20400
C708        C  0.39596736  0.36560804  0.08277920     0.35900
C709        C  0.42117592  0.32157451  0.09212251    -0.26300
C710        C  0.39874163  0.27549593  0.08628356     0.02300
C711        C  0.35175953  0.27382387  0.06656819     0.27100
C712        C  0.32687145  0.31756871  0.05692625    -0.25500
N713        N  0.41918204  0.41169771  0.09157998    -0.82800
H714        H  0.45736326  0.32343214  0.10722543     0.12900
C715        C  0.41925122  0.23163921  0.11175090     0.02300
N716        N  0.32759272  0.22785508  0.05967721    -0.81400
H717        H  0.29018219  0.31496346  0.04319596     0.17700
C718        C  0.42713105  0.23568331  0.16256094    -0.26300
C719        C  0.43855098  0.19486088  0.19146915     0.35800
C720        C  0.44278719  0.14774658  0.16949537    -0.20300
C721        C  0.43719328  0.14390219  0.11787349    -0.25500
C722        C  0.42577761  0.18548497  0.08870814     0.27100
H723        H  0.42218586  0.27080326  0.18074593     0.12900
N724        N  0.44460873  0.20186624  0.24359461    -0.82800
H725        H  0.44135232  0.10844120  0.10028097     0.17800
N726        N  0.42042753  0.18098985  0.03608879    -0.81400
H727        H  0.41272735  0.21734598  0.25808753     0.33400
H728        H  0.47268300  0.22708905  0.24863291     0.37900
H729        H  0.44757381  0.20221547  0.01907128     0.33300
H730        H  0.42634250  0.14473267  0.02492024     0.30000
H731        H  0.29569504  0.22790037  0.08116524     0.33400
H732        H  0.31791141  0.22537305  0.02247382     0.30000
H733        H  0.42999483  0.41244071  0.12852271     0.37900
H734        H  0.45041618  0.41347526  0.06916977     0.33400
C735        C  0.09764169  0.66983432  0.62476000    -0.20400
C736        C  0.13747795  0.69283747  0.64776818     0.35900
C737        C  0.15152180  0.67798258  0.69529895    -0.26300
C738        C  0.12627717  0.64104361  0.72090340     0.02300
C739        C  0.08780735  0.61653332  0.69740652     0.27100
C740        C  0.07460611  0.63037379  0.64890674    -0.25500
N741        N  0.16244461  0.73256990  0.62317537    -0.82800
H742        H  0.18191080  0.69580371  0.71290196     0.12900
C743        C  0.14383306  0.62596461  0.77054376     0.02300
N744        N  0.06108119  0.57925990  0.72375521    -0.81400
H745        H  0.04426827  0.61259770  0.63137178     0.17700
C746        C  0.12487817  0.64751682  0.81410389    -0.26300
C747        C  0.14393417  0.63568994  0.86123349     0.35800
C748        C  0.18304753  0.60230076  0.86440497    -0.20300
C749        C  0.20164875  0.58144382  0.82035492    -0.25500
C750        C  0.18239177  0.59237178  0.77416713     0.27100
H751        H  0.09538071  0.67365344  0.81124261     0.12900
N752        N  0.12361377  0.65709720  0.90542710    -0.82800
H753        H  0.23244786  0.55681789  0.82159876     0.17800
N754        N  0.20306348  0.56908303  0.73124262    -0.81400
H755        H  0.09525392  0.68095842  0.89661646     0.33400
H756        H  0.10824523  0.62869911  0.92652440     0.37900
H757        H  0.21631836  0.59617644  0.70715700     0.33300
H758        H  0.17566100  0.54968977  0.71340353     0.30000
H759        H  0.03371288  0.56494146  0.70158602     0.33400
H760        H  0.08506452  0.55056696  0.73118575     0.30000
H761        H  0.17893499  0.71828317  0.59122910     0.37900
H762        H  0.19035186  0.74613956  0.64513648     0.33400
C763        C  0.16167853  0.58885395  0.11960724    -0.20400
C764        C  0.11382314  0.57121438  0.12695501     0.35900
C765        C  0.08728884  0.58519624  0.17001847    -0.26300
C766        C  0.10778078  0.61657629  0.20534097     0.02300
C767        C  0.15423469  0.63651462  0.19623257     0.27100
C768        C  0.18066572  0.62227111  0.15386526    -0.25500
N769        N  0.09351842  0.53708708  0.09250296    -0.82800
H770        H  0.05121770  0.57053241  0.17681585     0.12900
C771        C  0.08172346  0.62838715  0.25258078     0.02300
N772        N  0.17483787  0.67040517  0.23086198    -0.81400
H773        H  0.21714115  0.63638812  0.14820312     0.17700
C774        C  0.09913549  0.60896323  0.29721662    -0.26300
C775        C  0.08311171  0.62716971  0.34343542     0.35800
C776        C  0.04891108  0.66558616  0.34537670    -0.20300
C777        C  0.02870598  0.68216241  0.30052906    -0.25500
C778        C  0.04503620  0.66433407  0.25427900     0.27100
H779        H  0.12738550  0.58137114  0.29610478     0.12900
N780        N  0.10392840  0.60854208  0.38793144    -0.82800
H781        H  0.00161684  0.71101764  0.30140258     0.17800
N782        N  0.02619351  0.68424237  0.20908840    -0.81400
H783        H  0.14151715  0.61377479  0.38567323     0.33400
H784        H  0.09730497  0.57078152  0.38945909     0.37900
H785        H  0.99913163  0.71018451  0.21673483     0.33300
H786        H  0.05444184  0.70301269  0.19098970     0.30000
H787        H  0.20960502  0.68122421  0.21919881     0.33400
H788        H  0.15331091  0.70203034  0.23090483     0.30000
H789        H  0.08902722  0.55565027  0.05896235     0.37900
H790        H  0.05886155  0.52611173  0.10436820     0.33400
C791        C  0.16341720  0.43422151  0.86881743    -0.20400
C792        C  0.18101147  0.43694040  0.81911123     0.35900
C793        C  0.15173374  0.42190085  0.78002409    -0.26300
C794        C  0.10562069  0.40212125  0.78861520     0.02300
C795        C  0.08759137  0.39882235  0.83778022     0.27100
C796        C  0.11626184  0.41577755  0.87731109    -0.25500
N797        N  0.22947193  0.45295847  0.80768446    -0.82800
H798        H  0.16635784  0.42325282  0.74254266     0.12900
C799        C  0.08111019  0.37849634  0.74602998     0.02300
N800        N  0.04090257  0.37708646  0.84743394    -0.81400
H801        H  0.10242138  0.41278533  0.91494450     0.17700
C802        C  0.08135029  0.32732915  0.74352732    -0.26300
C803        C  0.06845287  0.30278866  0.70011488     0.35800
C804        C  0.05367375  0.32968580  0.65775044    -0.20300
C805        C  0.05190453  0.38115361  0.66086924    -0.25500
C806        C  0.06557907  0.40575898  0.70458749     0.27100
H807        H  0.09422619  0.30617007  0.77475874     0.12900
N808        N  0.07238268  0.25035405  0.69893573    -0.82800
H809        H  0.04007773  0.40219990  0.62917061     0.17800
N810        N  0.06450871  0.45834571  0.70694570    -0.81400
H811        H  0.05001217  0.23598207  0.72702813     0.33400
H812        H  0.10827492  0.24078836  0.70666138     0.37900
H813        H  0.05252943  0.47310264  0.67349677     0.33300
H814        H  0.03870930  0.46805269  0.73398972     0.30000
H815        H  0.03323504  0.37653535  0.88546032     0.33400
H816        H  0.01495015  0.39983589  0.83144278     0.30000
H817        H  0.24803954  0.42379363  0.79088339     0.37900
H818        H  0.22755396  0.48132574  0.78170880     0.33400
C819        C  0.08422414  0.35091687  0.38076014    -0.20400
C820        C  0.12215965  0.33297580  0.34993390     0.35900
C821        C  0.13454273  0.35823267  0.30630293    -0.26300
C822        C  0.11005444  0.40112948  0.29292147     0.02300
C823        C  0.07441873  0.42081565  0.32499617     0.27100
C824        C  0.06198024  0.39582412  0.36915131    -0.25500
N825        N  0.14697978  0.28825449  0.36250173    -0.82800
H826        H  0.16283801  0.34394332  0.28200874     0.12900
C827        C  0.12378236  0.42476082  0.24542106     0.02300
N828        N  0.04967115  0.46502508  0.31181402    -0.81400
H829        H  0.03277073  0.40974573  0.39247870     0.17700
C830        C  0.10444176  0.40713622  0.20101652    -0.26300
C831        C  0.12525669  0.42041386  0.15492406     0.35800
C832        C  0.16589872  0.45187704  0.15333396    -0.20300
C833        C  0.18243633  0.47232172  0.19789679    -0.25500
C834        C  0.16224701  0.45842743  0.24369394     0.27100
H835        H  0.07502655  0.38071157  0.20230558     0.12900
N836        N  0.10706208  0.39936229  0.11037839    -0.82800
H837        H  0.21322372  0.49711253  0.19750367     0.17800
N838        N  0.18298870  0.47596955  0.28864663    -0.81400
H839        H  0.07038515  0.40882423  0.10772552     0.33400
H840        H  0.10934199  0.36117341  0.11346367     0.37900
H841        H  0.21948557  0.46537343  0.28900711     0.33300
H842        H  0.18183193  0.51428211  0.28807364     0.30000
H843        H  0.01262711  0.45701007  0.30988516     0.33400
H844        H  0.05453881  0.49050946  0.34018682     0.30000
H845        H  0.16524237  0.29431369  0.39560376     0.37900
H846        H  0.17348961  0.27975837  0.33575935     0.33400
loop_ 
_geom_bond_atom_site_label_1 
_geom_bond_atom_site_label_2 
_geom_bond_distance 
_geom_bond_site_symmetry_2 
_ccdc_geom_bond_type 
O1            C9   1.277       .  A
O1          Co21   1.998       .  S
O2           C10   1.275       .  A
O2          Co22   1.924       .  S
O3           C11   1.281       .  A
O3          Co23   2.018       .  S
O4           C12   1.274       .  A
O4          Co24   1.994       .  S
O5           C11   1.281       .  A
O5          Co22   1.998   1_554  S
O6           C12   1.283       .  A
O6          Co21   2.016   1_556  S
O7           C10   1.292       .  A
O7          Co24   2.116       .  S
O8            C9   1.273       .  A
O8          Co23   1.998       .  S
C9          C832   1.486       .  S
C10         C748   1.495       .  S
C11         C763   1.489       .  S
C12         C791   1.499       .  S
O13          C26   1.273       .  A
O13         Co21   1.992   1_556  S
O14          C27   1.271       .  A
O14         Co22   1.991   1_554  S
O15          C28   1.280       .  A
O15         Co23   2.002       .  S
O16          C29   1.280       .  A
O16         Co24   1.915       .  S
O17          C29   1.292       .  A
O17         Co22   2.116       .  S
O18          C28   1.278       .  A
O18         Co21   2.010       .  S
O19          C26   1.281       .  A
O19         Co24   2.011       .  S
O20          C27   1.277       .  A
O20         Co23   2.010       .  S
Co21         O25   2.013       .  S
Co22         O25   1.962   1_556  S
Co23         O25   2.017       .  S
Co24         O25   1.976   1_556  S
C26         C664   1.497       .  S
C27         C692   1.495       .  S
C28         C707   1.494       .  S
C29         C623   1.477       .  S
O30          C38   1.277       .  A
O30         Co50   2.008       .  S
O31          C39   1.275       .  A
O31         Co51   1.995       .  S
O32          C40   1.276       .  A
O32         Co52   1.908       .  S
O33          C41   1.280       .  A
O33         Co53   2.013       .  S
O34          C40   1.290       .  A
O34         Co51   2.116       .  S
O35          C41   1.272       .  A
O35         Co50   1.991       .  S
O36          C39   1.283       .  A
O36         Co53   2.017   1_556  S
O37          C38   1.282       .  A
O37         Co52   2.008   1_554  S
C38         C595   1.490       .  S
C39         C524   1.500       .  S
C40         C580   1.469       .  S
C41         C539   1.491       .  S
O42          C55   1.281       .  A
O42         Co50   1.997       .  S
O43          C56   1.281       .  A
O43         Co51   1.934       .  S
O44          C57   1.270       .  A
O44         Co52   1.980   1_554  S
O45          C58   1.275       .  A
O45         Co53   2.003   1_556  S
O46          C58   1.283       .  A
O46         Co51   2.011       .  S
O47          C57   1.281       .  A
O47         Co50   2.022       .  S
O48          C55   1.279       .  A
O48         Co53   2.004       .  S
O49          C56   1.292       .  A
O49         Co52   2.115       .  S
Co50         O54   2.013       .  S
Co51         O54   1.972   1_556  S
Co52         O54   1.957   1_556  S
Co53         O54   2.013       .  S
C55         C399   1.483       .  S
C56         C483   1.506       .  S
C57         C427   1.498       .  S
C58         C468   1.494       .  S
O59          C67   1.275       .  A
O59         Co79   1.997       .  S
O60          C68   1.272       .  A
O60         Co80   1.987       .  S
O61          C69   1.270       .  A
O61         Co81   2.003   1_565  S
O62          C70   1.270       .  A
O62         Co82   2.007   1_545  S
O63          C69   1.274       .  A
O63         Co80   1.997       .  S
O64          C70   1.278       .  A
O64         Co79   2.004       .  S
O65          C68   1.276       .  A
O65         Co82   2.022       .  S
O66          C67   1.274       .  A
O66         Co81   2.015       .  S
C67         C384   1.485       .  S
C68         C287   1.481       .  S
C69         C315   1.488       .  S
C70         C343   1.493       .  S
O71          C84   1.270       .  A
O71         Co79   2.004       .  S
O72          C85   1.273       .  A
O72         Co80   2.012       .  S
O73          C86   1.273       .  A
O73         Co81   1.989       .  S
O74          C87   1.272       .  A
O74         Co82   1.985       .  S
O75          C87   1.271       .  A
O75         Co80   2.012       .  S
O76          C86   1.273       .  A
O76         Co79   2.018       .  S
O77          C84   1.275       .  A
O77         Co82   2.005   1_545  S
O78          C85   1.276       .  A
O78         Co81   1.998   1_565  S
Co79         O83   2.097       .  S
Co80         O83   2.098   1_565  S
Co81         O83   2.101       .  S
Co82         O83   2.102   1_565  S
C84         C440   1.496       .  S
C85         C679   1.492       .  S
C86         C720   1.497       .  S
C87         C412   1.489       .  S
O88          C96   1.273       .  A
O88        Co108   2.013   1_545  S
O89          C97   1.269       .  A
O89        Co109   2.003       .  S
O90          C98   1.277       .  A
O90        Co110   2.002       .  S
O91          C99   1.281       .  A
O91        Co111   2.005       .  S
O92          C98   1.274       .  A
O92        Co109   2.009   1_545  S
O93          C99   1.275       .  A
O93        Co108   2.008       .  S
O94          C97   1.273       .  A
O94        Co111   1.996       .  S
O95          C96   1.274       .  A
O95        Co110   1.992       .  S
C96         C272   1.491       .  S
C97         C175   1.487       .  S
C98         C244   1.495       .  S
C99         C203   1.498       .  S
O100        C113   1.283       .  A
O100       Co108   2.034       .  S
O101        C114   1.278       .  A
O101       Co109   2.012   1_545  S
O102        C115   1.274       .  A
O102       Co110   2.004       .  S
O103        C116   1.279       .  A
O103       Co111   2.027       .  S
O104        C116   1.278       .  A
O104       Co109   1.998       .  S
O105        C115   1.281       .  A
O105       Co108   2.005   1_545  S
O106        C113   1.262       .  A
O106       Co111   1.985       .  S
O107        C114   1.270       .  A
O107       Co110   2.010       .  S
Co108       O112   2.102       .  S
Co109       O112   2.098       .  S
Co110       O112   2.099   1_545  S
Co111       O112   2.098       .  S
C113        C636   1.500       .  S
C114        C496   1.493       .  S
C115        C651   1.496       .  S
C116        C455   1.493       .  S
O117        C125   1.270       .  A
O117       Co137   1.986       .  S
O118        C126   1.277       .  A
O118       Co138   2.004       .  S
O119        C127   1.272       .  A
O119       Co139   2.012   1_655  S
O120        C128   1.274       .  A
O120       Co140   2.020   1_455  S
O121        C127   1.278       .  A
O121       Co138   2.004       .  S
O122        C128   1.276       .  A
O122       Co137   1.996       .  S
O123        C126   1.270       .  A
O123       Co140   1.998       .  S
O124        C125   1.273       .  A
O124       Co139   2.012       .  S
C125        C819   1.477       .  S
C126        C567   1.487       .  S
C127        C608   1.497       .  S
C128        C804   1.499       .  S
O129        C142   1.269       .  A
O129       Co137   2.002       .  S
O130        C143   1.273       .  A
O130       Co138   2.019       .  S
O131        C144   1.272       .  A
O131       Co139   1.984       .  S
O132        C145   1.278       .  A
O132       Co140   1.996       .  S
O133        C145   1.271       .  A
O133       Co138   2.007       .  S
O134        C144   1.274       .  A
O134       Co137   2.017       .  S
O135        C142   1.277       .  A
O135       Co140   2.013   1_455  S
O136        C143   1.274       .  A
O136       Co139   1.998   1_655  S
Co137       O141   2.099   1_455  S
Co138       O141   2.106       .  S
Co139       O141   2.098   1_455  S
Co140       O141   2.101       .  S
C142        C259   1.494       .  S
C143        C356   1.493       .  S
C144        C371   1.489       .  S
C145        C231   1.491       .  S
O146        C154   1.272       .  A
O146       Co166   2.012   1_455  S
O147        C155   1.274       .  A
O147       Co167   2.023   1_655  S
O148        C156   1.279       .  A
O148       Co168   2.009       .  S
O149        C157   1.270       .  A
O149       Co169   1.984       .  S
O150        C156   1.270       .  A
O150       Co167   2.003       .  S
O151        C157   1.271       .  A
O151       Co166   2.009       .  S
O152        C155   1.272       .  A
O152       Co169   1.986       .  S
O153        C154   1.278       .  A
O153       Co168   2.001       .  S
C154        C776   1.496       .  S
C155        C511   1.495       .  S
C156        C735   1.484       .  S
C157        C552   1.471       .  S
O158        C171   1.274       .  A
O158       Co166   1.987       .  S
O159        C172   1.276       .  A
O159       Co167   1.993       .  S
O160        C173   1.272       .  A
O160       Co168   2.008       .  S
O161        C174   1.270       .  A
O161       Co169   2.010       .  S
O162        C174   1.272       .  A
O162       Co167   1.993   1_655  S
O163        C173   1.273       .  A
O163       Co166   1.998   1_455  S
O164        C171   1.274       .  A
O164       Co169   2.019       .  S
O165        C172   1.269       .  A
O165       Co168   2.004       .  S
Co166       O170   2.106       .  S
Co167       O170   2.101   1_455  S
Co168       O170   2.099   1_455  S
Co169       O170   2.095       .  S
C171        C300   1.494       .  S
C172        C216   1.490       .  S
C173        C328   1.488       .  S
C174        C188   1.485       .  S
C175        C176   1.407       .  A
C175        C180   1.408       .  A
C176        C177   1.411       .  A
C176        N181   1.431       .  S
C177        C178   1.407       .  A
C177        H182   1.079       .  S
C178        C183   1.482       .  S
C178        C179   1.412       .  A
C179        C180   1.394       .  A
C179        N184   1.440       .  S
C180        H185   1.084       .  S
N181        H201   1.046       .  S
N181        H202   1.045       .  S
C183        C186   1.403       .  A
C183        C190   1.409       .  A
N184        H199   1.043       .  S
N184        H200   1.045       .  S
C186        C187   1.412       .  A
C186        H191   1.079       .  S
C187        C188   1.414       .  A
C187        N192   1.436       .  S
C188        C189   1.407       .  A
C189        C190   1.394       .  A
C189        H193   1.084       .  S
C190        N194   1.433       .  S
N192        H195   1.046       .  S
N192        H196   1.045       .  S
N194        H197   1.045       .  S
N194        H198   1.045       .  S
C203        C204   1.417       .  A
C203        C208   1.412       .  A
C204        C205   1.410       .  A
C204        N209   1.431       .  S
C205        C206   1.410       .  A
C205        H210   1.084       .  S
C206        C211   1.488       .  S
C206        C207   1.404       .  A
C207        C208   1.396       .  A
C207        N212   1.434       .  S
C208        H213   1.083       .  S
N209        H229   1.045       .  S
N209        H230   1.045       .  S
C211        C214   1.396       .  A
C211        C218   1.413       .  A
N212        H227   1.046       .  S
N212        H228   1.045       .  S
C214        C215   1.399       .  A
C214        H219   1.084       .  S
C215        C216   1.421       .  A
C215        N220   1.433       .  S
C216        C217   1.402       .  A
C217        C218   1.407       .  A
C217        H221   1.083       .  S
C218        N222   1.429       .  S
N220        H223   1.045       .  S
N220        H224   1.045       .  S
N222        H225   1.044       .  S
N222        H226   1.045       .  S
C231        C232   1.422       .  A
C231        C236   1.403       .  A
C232        C233   1.399       .  A
C232        N237   1.433       .  S
C233        C234   1.394       .  A
C233        H238   1.084       .  S
C234        C239   1.485       .  S
C234        C235   1.413       .  A
C235        C236   1.409       .  A
C235        N240   1.433       .  S
C236        H241   1.083       .  S
N237        H257   1.046       .  S
N237        H258   1.045       .  S
C239        C242   1.409       .  A
C239        C246   1.405       .  A
N240        H255   1.041       .  S
N240        H256   1.046       .  S
C242        C243   1.415       .  A
C242        H247   1.084       .  S
C243        C244   1.412       .  A
C243        N248   1.431       .  S
C244        C245   1.409       .  A
C245        C246   1.395       .  A
C245        H249   1.080       .  S
C246        N250   1.440       .  S
N248        H251   1.045       .  S
N248        H252   1.046       .  S
N250        H253   1.046       .  S
N250        H254   1.046       .  S
C259        C260   1.411       .  A
C259        C264   1.410       .  A
C260        C261   1.416       .  A
C260        N265   1.431       .  S
C261        C262   1.408       .  A
C261        H266   1.082       .  S
C262        C267   1.489       .  S
C262        C263   1.408       .  A
C263        C264   1.394       .  A
C263        N268   1.433       .  S
C264        H269   1.084       .  S
N265        H285   1.044       .  S
N265        H286   1.045       .  S
C267        C270   1.407       .  A
C267        C274   1.402       .  A
N268        H283   1.045       .  S
N268        H284   1.046       .  S
C270        C271   1.407       .  A
C270        H275   1.078       .  S
C271        C272   1.415       .  A
C271        N276   1.432       .  S
C272        C273   1.409       .  A
C273        C274   1.399       .  A
C273        H277   1.084       .  S
C274        N278   1.431       .  S
N276        H279   1.045       .  S
N276        H280   1.045       .  S
N278        H281   1.044       .  S
N278        H282   1.045       .  S
C287        C288   1.414       .  A
C287        C292   1.406       .  A
C288        C289   1.402       .  A
C288        N293   1.438       .  S
C289        C290   1.399       .  A
C289        H294   1.084       .  S
C290        C295   1.483       .  S
C290        C291   1.409       .  A
C291        C292   1.411       .  A
C291        N296   1.432       .  S
C292        H297   1.083       .  S
N293        H313   1.045       .  S
N293        H314   1.046       .  S
C295        C298   1.405       .  A
C295        C302   1.408       .  A
N296        H311   1.046       .  S
N296        H312   1.045       .  S
C298        C299   1.411       .  A
C298        H303   1.084       .  S
C299        C300   1.413       .  A
C299        N304   1.431       .  S
C300        C301   1.410       .  A
C301        C302   1.397       .  A
C301        H305   1.084       .  S
C302        N306   1.433       .  S
N304        H307   1.046       .  S
N304        H308   1.046       .  S
N306        H309   1.045       .  S
N306        H310   1.044       .  S
C315        C316   1.409       .  A
C315        C320   1.410       .  A
C316        C317   1.411       .  A
C316        N321   1.431       .  S
C317        C318   1.409       .  A
C317        H322   1.084       .  S
C318        C323   1.481       .  S
C318        C319   1.401       .  A
C319        C320   1.397       .  A
C319        N324   1.432       .  S
C320        H325   1.084       .  S
N321        H341   1.046       .  S
N321        H342   1.046       .  S
C323        C326   1.407       .  A
C323        C330   1.406       .  A
N324        H339   1.045   1_565  S
N324        H340   1.046       .  S
C326        C327   1.413       .  A
C326        H331   1.084       .  S
C327        C328   1.412       .  A
C327        N332   1.431       .  S
C328        C329   1.407       .  A
C329        C330   1.397       .  A
C329        H333   1.084       .  S
C330        N334   1.439       .  S
N332        H335   1.044       .  S
N332        H336   1.045       .  S
N334        H337   1.046       .  S
N334        H338   1.046       .  S
C343        C344   1.420       .  A
C343        C348   1.404       .  A
C344        C345   1.403       .  A
C344        N349   1.433   1_545  S
C345        C346   1.398       .  A
C345        H350   1.084       .  S
C346        C351   1.492       .  S
C346        C347   1.413       .  A
C347        C348   1.412       .  A
C347        N352   1.432       .  S
C348        H353   1.083       .  S
N349        H369   1.045       .  S
N349        H370   1.045   1_565  S
C351        C354   1.400       .  A
C351        C358   1.415       .  A
N352        H367   1.046       .  S
N352        H368   1.045       .  S
C354        C355   1.401       .  A
C354        H359   1.084       .  S
C355        C356   1.415       .  A
C355        N360   1.434       .  S
C356        C357   1.407       .  A
C357        C358   1.417       .  A
C357        H361   1.083       .  S
C358        N362   1.437       .  S
N360        H363   1.046       .  S
N360        H364   1.046       .  S
N362        H365   1.046       .  S
N362        H366   1.046       .  S
C371        C372   1.414       .  A
C371        C376   1.408       .  A
C372        C373   1.413       .  A
C372        N377   1.437       .  S
C373        C374   1.405       .  A
C373        H378   1.081       .  S
C374        C379   1.481       .  S
C374        C375   1.407       .  A
C375        C376   1.393       .  A
C375        N380   1.432       .  S
C376        H381   1.084       .  S
N377        H397   1.046       .  S
N377        H398   1.046       .  S
C379        C382   1.396       .  A
C379        C386   1.413       .  A
N380        H395   1.045       .  S
N380        H396   1.042       .  S
C382        C383   1.395       .  A
C382        H387   1.085       .  S
C383        C384   1.411       .  A
C383        N388   1.433       .  S
C384        C385   1.408       .  A
C385        C386   1.417       .  A
C385        H389   1.083       .  S
C386        N390   1.437       .  S
N388        H391   1.046       .  S
N388        H392   1.045       .  S
N390        H393   1.046       .  S
N390        H394   1.044       .  S
C399        C400   1.410       .  A
C399        C404   1.407       .  A
C400        C401   1.411       .  A
C400        N405   1.431       .  S
C401        C402   1.406       .  A
C401        H406   1.084       .  S
C402        C407   1.477       .  S
C402        C403   1.410       .  A
C403        C404   1.390       .  A
C403        N408   1.434       .  S
C404        H409   1.084       .  S
N405        H425   1.045       .  S
N405        H426   1.046       .  S
C407        C410   1.395       .  A
C407        C414   1.408       .  A
N408        H423   1.044       .  S
N408        H424   1.046       .  S
C410        C411   1.398       .  A
C410        H415   1.084       .  S
C411        C412   1.420       .  A
C411        N416   1.433       .  S
C412        C413   1.406       .  A
C413        C414   1.407       .  A
C413        H417   1.083       .  S
C414        N418   1.432       .  S
N416        H419   1.046       .  S
N416        H420   1.045       .  S
N418        H421   1.045       .  S
N418        H422   1.045       .  S
C427        C428   1.413       .  A
C427        C432   1.413       .  A
C428        C429   1.415       .  A
C428        N433   1.436       .  S
C429        C430   1.409       .  A
C429        H434   1.083       .  S
C430        C435   1.488       .  S
C430        C431   1.405       .  A
C431        C432   1.399       .  A
C431        N436   1.439       .  S
C432        H437   1.083       .  S
N433        H453   1.046       .  S
N433        H454   1.046       .  S
C435        C438   1.410       .  A
C435        C442   1.402       .  A
N436        H451   1.046       .  S
N436        H452   1.046       .  S
C438        C439   1.415       .  A
C438        H443   1.084       .  S
C439        C440   1.411       .  A
C439        N444   1.431       .  S
C440        C441   1.411       .  A
C441        C442   1.396       .  A
C441        H445   1.083       .  S
C442        N446   1.433       .  S
N444        H447   1.046       .  S
N444        H448   1.046       .  S
N446        H449   1.045       .  S
N446        H450   1.046       .  S
C455        C456   1.411       .  A
C455        C460   1.407       .  A
C456        C457   1.416       .  A
C456        N461   1.431       .  S
C457        C458   1.410       .  A
C457        H462   1.083       .  S
C458        C463   1.494       .  S
C458        C459   1.405       .  A
C459        C460   1.400       .  A
C459        N464   1.433       .  S
C460        H465   1.084       .  S
N461        H481   1.045       .  S
N461        H482   1.045       .  S
C463        C466   1.411       .  A
C463        C470   1.407       .  A
N464        H479   1.046       .  S
N464        H480   1.046       .  S
C466        C467   1.414       .  A
C466        H471   1.084       .  S
C467        C468   1.407       .  A
C467        N472   1.431       .  S
C468        C469   1.411       .  A
C469        C470   1.404       .  A
C469        H473   1.083       .  S
C470        N474   1.438       .  S
N472        H475   1.045       .  S
N472        H476   1.046       .  S
N474        H477   1.046       .  S
N474        H478   1.046       .  S
C483        C484   1.411       .  A
C483        C488   1.414       .  A
C484        C485   1.419       .  A
C484        N489   1.431       .  S
C485        C486   1.414       .  A
C485        H490   1.083       .  S
C486        C491   1.497       .  S
C486        C487   1.401       .  A
C487        C488   1.399       .  A
C487        N492   1.432       .  S
C488        H493   1.079       .  S
N489        H509   1.046       .  S
N489        H510   1.046       .  S
C491        C494   1.397       .  A
C491        C498   1.418       .  A
N492        H507   1.046       .  S
N492        H508   1.044       .  S
C494        C495   1.401       .  A
C494        H499   1.084       .  S
C495        C496   1.414       .  A
C495        N500   1.430       .  S
C496        C497   1.405       .  A
C497        C498   1.417       .  A
C497        H501   1.083       .  S
C498        N502   1.432       .  S
N500        H503   1.046       .  S
N500        H504   1.046       .  S
N502        H505   1.044       .  S
N502        H506   1.046       .  S
C511        C512   1.418       .  A
C511        C516   1.406       .  A
C512        C513   1.404       .  A
C512        N517   1.433       .  S
C513        C514   1.402       .  A
C513        H518   1.083       .  S
C514        C519   1.495       .  S
C514        C515   1.413       .  A
C515        C516   1.409       .  A
C515        N520   1.433       .  S
C516        H521   1.083       .  S
N517        H537   1.046       .  S
N517        H538   1.046   1_655  S
C519        C522   1.399       .  A
C519        C526   1.413       .  A
N520        H535   1.046       .  S
N520        H536   1.046       .  S
C522        C523   1.399       .  A
C522        H527   1.084       .  S
C523        C524   1.421       .  A
C523        N528   1.433       .  S
C524        C525   1.409       .  A
C525        C526   1.414       .  A
C525        H529   1.083       .  S
C526        N530   1.432       .  S
N528        H531   1.046       .  S
N528        H532   1.046       .  S
N530        H533   1.046       .  S
N530        H534   1.046       .  S
C539        C540   1.409       .  A
C539        C544   1.409       .  A
C540        C541   1.413       .  A
C540        N545   1.431       .  S
C541        C542   1.409       .  A
C541        H546   1.084       .  S
C542        C547   1.480       .  S
C542        C543   1.411       .  A
C543        C544   1.391       .  A
C543        N548   1.440       .  S
C544        H549   1.084       .  S
N545        H565   1.045       .  S
N545        H566   1.046       .  S
C547        C550   1.401       .  A
C547        C554   1.406       .  A
N548        H563   1.045       .  S
N548        H564   1.043       .  S
C550        C551   1.400       .  A
C550        H555   1.084       .  S
C551        C552   1.412       .  A
C551        N556   1.439       .  S
C552        C553   1.402       .  A
C553        C554   1.407       .  A
C553        H557   1.083       .  S
C554        N558   1.429       .  S
N556        H559   1.046       .  S
N556        H560   1.046       .  S
N558        H561   1.046       .  S
N558        H562   1.045       .  S
C567        C568   1.412       .  A
C567        C572   1.408       .  A
C568        C569   1.417       .  A
C568        N573   1.436       .  S
C569        C570   1.409       .  A
C569        H574   1.083       .  S
C570        C575   1.480       .  S
C570        C571   1.404       .  A
C571        C572   1.387       .  A
C571        N576   1.434       .  S
C572        H577   1.083       .  S
N573        H593   1.045       .  S
N573        H594   1.046       .  S
C575        C578   1.405       .  A
C575        C582   1.409       .  A
N576        H591   1.044       .  S
N576        H592   1.045       .  S
C578        C579   1.404       .  A
C578        H583   1.084       .  S
C579        C580   1.406       .  A
C579        N584   1.433       .  S
C580        C581   1.407       .  A
C581        C582   1.401       .  A
C581        H585   1.084       .  S
C582        N586   1.433       .  S
N584        H587   1.046       .  S
N584        H588   1.045       .  S
N586        H589   1.045       .  S
N586        H590   1.044       .  S
C595        C596   1.414       .  A
C595        C600   1.406       .  A
C596        C597   1.400       .  A
C596        N601   1.434       .  S
C597        C598   1.399       .  A
C597        H602   1.084       .  S
C598        C603   1.492       .  S
C598        C599   1.416       .  A
C599        C600   1.419       .  A
C599        N604   1.436       .  S
C600        H605   1.083       .  S
N601        H621   1.046       .  S
N601        H622   1.046       .  S
C603        C606   1.396       .  A
C603        C610   1.413       .  A
N604        H619   1.046       .  S
N604        H620   1.044       .  S
C606        C607   1.404       .  A
C606        H611   1.084       .  S
C607        C608   1.421       .  A
C607        N612   1.432   1_655  S
C608        C609   1.405       .  A
C609        C610   1.413       .  A
C609        H613   1.083       .  S
C610        N614   1.430       .  S
N612        H615   1.045       .  S
N612        H616   1.046   1_455  S
N614        H617   1.045       .  S
N614        H618   1.046       .  S
C623        C624   1.414       .  A
C623        C628   1.401       .  A
C624        C625   1.409       .  A
C624        N629   1.437       .  S
C625        C626   1.400       .  A
C625        H630   1.084       .  S
C626        C631   1.489       .  S
C626        C627   1.416       .  A
C627        C628   1.410       .  A
C627        N632   1.438       .  S
C628        H633   1.084       .  S
N629        H649   1.045       .  S
N629        H650   1.046       .  S
C631        C634   1.390       .  A
C631        C638   1.413       .  A
N632        H647   1.046       .  S
N632        H648   1.046       .  S
C634        C635   1.395       .  A
C634        H639   1.085       .  S
C635        C636   1.427       .  A
C635        N640   1.434       .  S
C636        C637   1.407       .  A
C637        C638   1.419       .  A
C637        H641   1.083       .  S
C638        N642   1.430       .  S
N640        H643   1.046       .  S
N640        H644   1.044       .  S
N642        H645   1.045       .  S
N642        H646   1.045       .  S
C651        C652   1.412       .  A
C651        C656   1.412       .  A
C652        C653   1.416       .  A
C652        N657   1.436       .  S
C653        C654   1.411       .  A
C653        H658   1.083       .  S
C654        C659   1.493       .  S
C654        C655   1.403       .  A
C655        C656   1.398       .  A
C655        N660   1.433       .  S
C656        H661   1.084       .  S
N657        H677   1.045       .  S
N657        H678   1.046       .  S
C659        C662   1.412       .  A
C659        C666   1.403       .  A
N660        H675   1.046       .  S
N660        H676   1.046       .  S
C662        C663   1.416       .  A
C662        H667   1.083       .  S
C663        C664   1.410       .  A
C663        N668   1.431       .  S
C664        C665   1.412       .  A
C665        C666   1.396       .  A
C665        H669   1.083       .  S
C666        N670   1.433       .  S
N668        H671   1.046       .  S
N668        H672   1.046       .  S
N670        H673   1.046       .  S
N670        H674   1.046       .  S
C679        C680   1.412       .  A
C679        C684   1.409       .  A
C680        C681   1.413       .  A
C680        N685   1.431       .  S
C681        C682   1.408       .  A
C681        H686   1.084       .  S
C682        C687   1.488       .  S
C682        C683   1.404       .  A
C683        C684   1.397       .  A
C683        N688   1.433       .  S
C684        H689   1.084       .  S
N685        H705   1.045       .  S
N685        H706   1.045       .  S
C687        C690   1.407       .  A
C687        C694   1.406       .  A
N688        H703   1.046       .  S
N688        H704   1.046       .  S
C690        C691   1.413       .  A
C690        H695   1.084       .  S
C691        C692   1.415       .  A
C691        N696   1.437       .  S
C692        C693   1.410       .  A
C693        C694   1.403       .  A
C693        H697   1.083       .  S
C694        N698   1.438       .  S
N696        H699   1.046       .  S
N696        H700   1.045       .  S
N698        H701   1.046       .  S
N698        H702   1.046       .  S
C707        C708   1.410       .  A
C707        C712   1.410       .  A
C708        C709   1.410       .  A
C708        N713   1.431       .  S
C709        C710   1.410       .  A
C709        H714   1.083       .  S
C710        C715   1.492       .  S
C710        C711   1.407       .  A
C711        C712   1.400       .  A
C711        N716   1.432       .  S
C712        H717   1.084       .  S
N713        H733   1.046       .  S
N713        H734   1.045       .  S
C715        C718   1.397       .  A
C715        C722   1.415       .  A
N716        H731   1.046       .  S
N716        H732   1.046       .  S
C718        C719   1.396       .  A
C718        H723   1.084       .  S
C719        C720   1.420       .  A
C719        N724   1.433       .  S
C720        C721   1.409       .  A
C721        C722   1.416       .  A
C721        H725   1.083       .  S
C722        N726   1.436       .  S
N724        H727   1.045       .  S
N724        H728   1.045       .  S
N726        H729   1.046       .  S
N726        H730   1.046       .  S
C735        C736   1.416       .  A
C735        C740   1.403       .  A
C736        C737   1.405       .  A
C736        N741   1.438       .  S
C737        C738   1.399       .  A
C737        H742   1.084       .  S
C738        C743   1.489       .  S
C738        C739   1.412       .  A
C739        C740   1.415       .  A
C739        N744   1.436       .  S
C740        H745   1.081       .  S
N741        H761   1.045       .  S
N741        H762   1.046       .  S
C743        C746   1.409       .  A
C743        C750   1.406       .  A
N744        H759   1.045       .  S
N744        H760   1.044       .  S
C746        C747   1.420       .  A
C746        H751   1.083       .  S
C747        C748   1.413       .  A
C747        N752   1.436       .  S
C748        C749   1.409       .  A
C749        C750   1.394       .  A
C749        H753   1.082       .  S
C750        N754   1.433       .  S
N752        H755   1.046       .  S
N752        H756   1.046       .  S
N754        H757   1.045       .  S
N754        H758   1.045       .  S
C763        C764   1.414       .  A
C763        C768   1.406       .  A
C764        C765   1.417       .  A
C764        N769   1.436       .  S
C765        C766   1.407       .  A
C765        H770   1.084       .  S
C766        C771   1.490       .  S
C766        C767   1.408       .  A
C767        C768   1.403       .  A
C767        N772   1.439       .  S
C768        H773   1.084       .  S
N769        H789   1.045       .  S
N769        H790   1.046       .  S
C771        C774   1.406       .  A
C771        C778   1.407       .  A
N772        H787   1.046       .  S
N772        H788   1.046       .  S
C774        C775   1.409       .  A
C774        H779   1.082       .  S
C775        C776   1.408       .  A
C775        N780   1.431       .  S
C776        C777   1.413       .  A
C777        C778   1.409       .  A
C777        H781   1.084       .  S
C778        N782   1.438       .  S
N780        H783   1.046       .  S
N780        H784   1.046       .  S
N782        H785   1.046   1_455  S
N782        H786   1.046       .  S
C791        C792   1.422       .  A
C791        C796   1.408       .  A
C792        C793   1.400       .  A
C792        N797   1.433       .  S
C793        C794   1.396       .  A
C793        H798   1.084       .  S
C794        C799   1.490       .  S
C794        C795   1.413       .  A
C795        C796   1.416       .  A
C795        N800   1.436       .  S
C796        H801   1.083       .  S
N797        H817   1.046       .  S
N797        H818   1.044       .  S
C799        C802   1.396       .  A
C799        C806   1.413       .  A
N800        H815   1.046       .  S
N800        H816   1.043       .  S
C802        C803   1.401       .  A
C802        H807   1.084       .  S
C803        C804   1.422       .  A
C803        N808   1.433       .  S
C804        C805   1.406       .  A
C805        C806   1.415       .  A
C805        H809   1.083       .  S
C806        N810   1.435       .  S
N808        H811   1.046       .  S
N808        H812   1.046       .  S
N810        H813   1.046       .  S
N810        H814   1.046       .  S
C819        C820   1.414       .  A
C819        C824   1.405       .  A
C820        C821   1.401       .  A
C820        N825   1.439       .  S
C821        C822   1.398       .  A
C821        H826   1.084       .  S
C822        C827   1.478       .  S
C822        C823   1.406       .  A
C823        C824   1.410       .  A
C823        N828   1.430       .  S
C824        H829   1.083       .  S
N825        H845   1.046       .  S
N825        H846   1.046       .  S
C827        C830   1.405       .  A
C827        C834   1.402       .  A
N828        H843   1.045       .  S
N828        H844   1.045       .  S
C830        C831   1.409       .  A
C830        H835   1.084       .  S
C831        C832   1.410       .  A
C831        N836   1.431       .  S
C832        C833   1.409       .  A
C833        C834   1.400       .  A
C833        H837   1.084       .  S
C834        N838   1.432       .  S
N836        H839   1.046       .  S
N836        H840   1.046       .  S
N838        H841   1.046       .  S
N838        H842   1.044       .  S
