geometry optimzed in LAMMPS
_audit_creation_date              2020-11-30 
_audit_creation_method            'lammps2cif' 
_symmetry_space_group_name_H-M    'P1' 
_symmetry_Int_Tables_number       1 
_symmetry_cell_setting            triclinic 
loop_ 
_symmetry_equiv_pos_as_xyz 
  x,y,z 
_cell_length_a                    42.54679262 
_cell_length_b                    42.090001773489504 
_cell_length_c                    41.97558768577091 
_cell_angle_alpha                 89.5263397773099 
_cell_angle_beta                  89.28900543741095 
_cell_angle_gamma                 89.4715167590558 
loop_ 
_atom_site_label 
_atom_site_type_symbol 
_atom_site_fract_x 
_atom_site_fract_y 
_atom_site_fract_z 
_atom_site_charge 
In1        In  0.49808104  0.31924095  0.12482847     1.36900
C2          C  0.49200333  0.29870509  0.06506149     0.77700
O3          O  0.44739407  0.33476123  0.12877362    -0.60800
O4          O  0.48242767  0.36992582  0.13169138    -0.51700
C5          C  0.49441724  0.27128691  0.16744706     0.70300
O6          O  0.48126823  0.29788176  0.17145296    -0.46500
C7          C  0.55237149  0.35024304  0.12909950     0.75000
O8          O  0.51502823  0.29107650  0.08221020    -0.58400
O9          O  0.53853175  0.33872812  0.15326122    -0.48500
O10         O  0.47148347  0.31522387  0.07926382    -0.54800
C11         C  0.45342682  0.36396335  0.13127607     0.85200
O12         O  0.50890963  0.26908391  0.14122678    -0.56700
O13         O  0.53851408  0.34537859  0.10333857    -0.60000
In14       In  0.49941228  0.31062208  0.86683582     1.36900
C15         C  0.49460259  0.29310059  0.92794801     0.77700
O16         O  0.54648367  0.32517307  0.88587077    -0.60800
O17         O  0.53198503  0.34458467  0.84178417    -0.51700
C18         C  0.49963096  0.26421163  0.82284757     0.70300
O19         O  0.48832035  0.26051173  0.85046597    -0.46500
C20         C  0.45303851  0.35337300  0.85932483     0.75000
O21         O  0.51839272  0.28645184  0.91087460    -0.58400
O22         O  0.48049133  0.36018454  0.86736868    -0.48500
O23         O  0.47271249  0.30671397  0.91295711    -0.54800
C24         C  0.55235779  0.34433626  0.86336743     0.85200
O25         O  0.51109187  0.29125145  0.81816014    -0.56700
O26         O  0.44895956  0.32405900  0.85507491    -0.60000
In27       In  0.31211776  0.49627486  0.86509778     1.36900
C28         C  0.29113115  0.49139955  0.92547305     0.77700
O29         O  0.32513716  0.44421718  0.86139684    -0.60800
O30         O  0.36107547  0.47836688  0.85610083    -0.51700
C31         C  0.26483606  0.49635545  0.82278108     0.70300
O32         O  0.26899952  0.51826012  0.84242630    -0.46500
C33         C  0.34865185  0.54779687  0.86170214     0.75000
O34         O  0.28331960  0.51387806  0.90717107    -0.58400
O35         O  0.34073785  0.53265410  0.83720897    -0.48500
O36         O  0.30757416  0.47033198  0.91203347    -0.54800
C37         C  0.35411254  0.44930084  0.85711276     0.85200
O38         O  0.28510891  0.47453389  0.82452887    -0.56700
O39         O  0.33718994  0.53679925  0.88721571    -0.60000
In40       In  0.31769961  0.51219718  0.11972101     1.36900
C41         C  0.29511682  0.50247995  0.06134089     0.77700
O42         O  0.34478799  0.55026381  0.09419970    -0.60800
O43         O  0.34150406  0.55286382  0.14436193    -0.51700
C44         C  0.27130211  0.51156084  0.16372537     0.70300
O45         O  0.29474755  0.49322195  0.16449517    -0.46500
C46         C  0.36039485  0.46620539  0.12884145     0.75000
O47         O  0.28851749  0.52686922  0.07737852    -0.58400
O48         O  0.36671314  0.49535232  0.13068856    -0.48500
O49         O  0.31176934  0.48247572  0.07601154    -0.54800
C50         C  0.35239602  0.56491731  0.11892651     0.85200
O51         O  0.27182312  0.53083770  0.14066348    -0.56700
O52         O  0.33183579  0.46075510  0.12334271    -0.60000
In53       In  0.68192681  0.49460135  0.86678640     1.36900
C54         C  0.70316530  0.50040479  0.92641767     0.77700
O55         O  0.66829931  0.54647387  0.86472634    -0.60800
O56         O  0.63366342  0.51275319  0.85379875    -0.51700
C57         C  0.72991947  0.49564796  0.82463982     0.70300
O58         O  0.72929827  0.47732231  0.84845333    -0.46500
C59         C  0.64653876  0.44270469  0.86328456     0.75000
O60         O  0.70699677  0.47545231  0.91038548    -0.58400
O61         O  0.66073662  0.45436821  0.83939944    -0.48500
O62         O  0.68994331  0.52256639  0.91120729    -0.54800
C63         C  0.64014745  0.54172088  0.85706243     0.85200
O64         O  0.70592558  0.51310075  0.82238427    -0.56700
O65         O  0.65112695  0.45725210  0.88890735    -0.60000
In66       In  0.68530537  0.49566650  0.12316221     1.36900
C67         C  0.70724067  0.49925570  0.06330181     0.77700
O68         O  0.65846424  0.45514713  0.10345222    -0.60800
O69         O  0.66230657  0.45726139  0.15351115    -0.51700
C70         C  0.73048194  0.49754622  0.16706809     0.70300
O71         O  0.73488924  0.48586241  0.13981887    -0.46500
C72         C  0.64302486  0.54310510  0.12615729     0.75000
O73         O  0.70725939  0.47371019  0.07924624    -0.58400
O74         O  0.67222675  0.54783990  0.12426086    -0.48500
O75         O  0.69830880  0.52319334  0.07899184    -0.54800
C76         C  0.65105403  0.44300845  0.12997789     0.85200
O77         O  0.70313477  0.50826424  0.17148578    -0.56700
O78         O  0.63585851  0.51417103  0.12697232    -0.60000
In79       In  0.49541466  0.68099076  0.86138332     1.36900
C80         C  0.49956585  0.70377977  0.92036600     0.77700
O81         O  0.46329542  0.64491627  0.88326535    -0.60800
O82         O  0.45206824  0.66288562  0.83737182    -0.51700
C83         C  0.49524033  0.72768295  0.81741622     0.70300
O84         O  0.48009761  0.72963256  0.84331498    -0.46500
C85         C  0.54196349  0.63857949  0.85316091     0.75000
O86         O  0.47380849  0.69877069  0.90689624    -0.58400
O87         O  0.51393419  0.63351049  0.84565241    -0.48500
O88         O  0.52331842  0.69881239  0.90278679    -0.54800
C89         C  0.44505042  0.64404024  0.85986503     0.85200
O90         O  0.51009373  0.70192752  0.81429808    -0.56700
O91         O  0.54640687  0.66608196  0.86384902    -0.60000
In92       In  0.50539234  0.68958242  0.11605429     1.36900
C93         C  0.50866296  0.71120090  0.05645775     0.77700
O94         O  0.52192549  0.63985978  0.12514891    -0.60800
O95         O  0.55659291  0.67491767  0.11798126    -0.51700
C96         C  0.50777840  0.73424154  0.16107005     0.70300
O97         O  0.50165645  0.74061045  0.13241506    -0.46500
C98         C  0.45129720  0.65783889  0.11834835     0.75000
O99         O  0.48494849  0.71561568  0.07429414    -0.58400
O100        O  0.46103209  0.67374235  0.14149218    -0.48500
O101        O  0.53177579  0.69842185  0.07025531    -0.54800
C102        C  0.55080702  0.64592065  0.12295034     0.85200
O103        O  0.51337044  0.70527101  0.16625122    -0.56700
O104        O  0.46891194  0.65899623  0.09407762    -0.60000
In105      In  0.12518823  0.50325710  0.67957552     1.36900
C106        C  0.06549313  0.50456185  0.70034800     0.77700
O107        O  0.14801946  0.52560711  0.63627188    -0.60800
O108        O  0.12099080  0.55521875  0.66648375    -0.51700
C109        C  0.16569913  0.50156539  0.72843985     0.70300
O110        O  0.15285015  0.52668343  0.71847554    -0.46500
C111        C  0.12755994  0.45486256  0.63837360     0.75000
O112        O  0.08537354  0.48478713  0.71089380    -0.58400
O113        O  0.10277606  0.46337628  0.65284521    -0.48500
O114        O  0.07644015  0.52365536  0.67988817    -0.54800
C115        C  0.13704046  0.55307277  0.64114125     0.85200
O116        O  0.15713811  0.47720792  0.71385831    -0.56700
O117        O  0.15133455  0.47081920  0.64562018    -0.60000
In118      In  0.87273078  0.49488829  0.68159530     1.36900
C119        C  0.93126343  0.49851300  0.70390645     0.77700
O120        O  0.89694994  0.46264673  0.64705837    -0.60800
O121        O  0.84848355  0.45530072  0.65568280    -0.51700
C122        C  0.82994325  0.49419370  0.72918237     0.70300
O123        O  0.84868781  0.47147300  0.72399557    -0.46500
C124        C  0.86179504  0.54306697  0.64140159     0.75000
O125        O  0.91445652  0.47431813  0.70826415    -0.58400
O126        O  0.85432451  0.51479099  0.63568503    -0.48500
O127        O  0.91722388  0.52110099  0.69017099    -0.54800
C128        C  0.87291055  0.44691851  0.64040445     0.85200
O129        O  0.83344360  0.51712866  0.71016726    -0.56700
O130        O  0.87385120  0.54679341  0.66842825    -0.60000
In131      In  0.87233943  0.68153410  0.49577454     1.36900
C132        C  0.93126628  0.70219125  0.49608044     0.77700
O133        O  0.87750078  0.66856158  0.54780818    -0.60800
O134        O  0.85285690  0.63744955  0.51797904    -0.51700
C135        C  0.82805397  0.72714480  0.49679721     0.70300
O136        O  0.85595500  0.73222993  0.48787066    -0.46500
C137        C  0.87244705  0.64448718  0.44466692     0.75000
O138        O  0.91642708  0.69746902  0.47079321    -0.58400
O139        O  0.85394207  0.66794170  0.44750186    -0.48500
O140        O  0.91504765  0.69845838  0.52118262    -0.54800
C141        C  0.86305108  0.64267256  0.54548027     0.85200
O142        O  0.82320181  0.69884605  0.50502632    -0.56700
O143        O  0.89051709  0.64038076  0.46792715    -0.60000
In144      In  0.12743887  0.69027939  0.49432616     1.36900
C145        C  0.06631000  0.70451789  0.49771357     0.77700
O146        O  0.10689105  0.67002393  0.45019524    -0.60800
O147        O  0.15423233  0.65835045  0.46079714    -0.51700
C148        C  0.16561883  0.74102678  0.49202261     0.70300
O149        O  0.14735011  0.73526190  0.51506966    -0.46500
C150        C  0.14052347  0.65028006  0.54260311     0.75000
O151        O  0.08455544  0.71783704  0.47790961    -0.58400
O152        O  0.13363215  0.67913936  0.54689805    -0.48500
O153        O  0.07960677  0.68484229  0.51592393    -0.54800
C154        C  0.13129825  0.65452960  0.44240018     0.85200
O155        O  0.16420412  0.72083594  0.47021936    -0.56700
O156        O  0.14226277  0.64268097  0.51373054    -0.60000
In157      In  0.49547232  0.87216440  0.67454605     1.36900
C158        C  0.49864115  0.93126414  0.69690552     0.77700
O159        O  0.51719415  0.85271402  0.62988997    -0.60800
O160        O  0.54718256  0.87438952  0.66305359    -0.51700
C161        C  0.49408322  0.82746092  0.72068279     0.70300
O162        O  0.48193799  0.85462635  0.72398552    -0.46500
C163        C  0.44646685  0.87529109  0.63523926     0.75000
O164        O  0.47363721  0.91539844  0.69721416    -0.58400
O165        O  0.46882204  0.89462849  0.63457792    -0.48500
O166        O  0.52242797  0.91589324  0.68728413    -0.54800
C167        C  0.54474718  0.86119053  0.63628337     0.85200
O168        O  0.50701319  0.82338283  0.69392166    -0.56700
O169        O  0.44918259  0.85382412  0.65623406    -0.60000
In170      In  0.49319086  0.12716501  0.67474076     1.36900
C171        C  0.49560705  0.06771049  0.69721772     0.77700
O172        O  0.44948446  0.15032143  0.65454461    -0.60800
O173        O  0.46317560  0.10522851  0.63713012    -0.51700
C174        C  0.49361120  0.16899813  0.72318098     0.70300
O175        O  0.47729433  0.14421733  0.72378025    -0.46500
C176        C  0.54174122  0.13755527  0.63475343     0.75000
O177        O  0.47040802  0.08339714  0.69451664    -0.58400
O178        O  0.51473019  0.14935354  0.63063215    -0.48500
O179        O  0.51995553  0.08339905  0.69043148    -0.54800
C180        C  0.44386142  0.12801517  0.63555496     0.85200
O181        O  0.50932737  0.17224233  0.69784923    -0.56700
O182        O  0.54384509  0.12065086  0.65962299    -0.60000
In183      In  0.68273362  0.12841389  0.49272794     1.36900
C184        C  0.70264495  0.06795274  0.49418995     0.77700
O185        O  0.66914799  0.12468622  0.54493386    -0.60800
O186        O  0.64046568  0.15251156  0.51486486    -0.51700
C187        C  0.72989543  0.17085865  0.49165290     0.70300
O188        O  0.70124286  0.17844472  0.49105041    -0.46500
C189        C  0.64498228  0.12580728  0.44216163     0.75000
O190        O  0.69458502  0.08302514  0.51889199    -0.58400
O191        O  0.64057016  0.11027138  0.46755234    -0.48500
O192        O  0.70227924  0.08460737  0.46904231    -0.54800
C193        C  0.64426843  0.14094192  0.54232355     0.85200
O194        O  0.73455203  0.14132001  0.49288164    -0.56700
O195        O  0.66917365  0.14295942  0.44234390    -0.60000
In196      In  0.68604879  0.87113651  0.49496263     1.36900
C197        C  0.70677145  0.93073623  0.49756757     0.77700
O198        O  0.66871690  0.85132342  0.44841922    -0.60800
O199        O  0.64770187  0.89346420  0.46589166    -0.51700
C200        C  0.73187933  0.82649381  0.49597544     0.70300
O201        O  0.73567592  0.85407356  0.48484306    -0.46500
C202        C  0.64657086  0.86126282  0.54359289     0.75000
O203        O  0.69858501  0.91506914  0.52199423    -0.58400
O204        O  0.64217730  0.85082774  0.51595572    -0.48500
O205        O  0.70703017  0.91475493  0.47222952    -0.54800
C206        C  0.64822542  0.87281690  0.44440972     0.85200
O207        O  0.70458338  0.82187013  0.50669821    -0.56700
O208        O  0.67211281  0.87586879  0.54664078    -0.60000
In209      In  0.50035044  0.86808876  0.31171247     1.36900
C210        C  0.49390981  0.92777621  0.29086766     0.77700
O211        O  0.44842780  0.86770531  0.32217591    -0.60800
O212        O  0.47923160  0.85228163  0.35839877    -0.51700
C213        C  0.50306978  0.82534177  0.26451444     0.70300
O214        O  0.51064493  0.85399172  0.26070009    -0.46500
C215        C  0.55056275  0.86882369  0.34949134     0.75000
O216        O  0.51983115  0.91292311  0.28951957    -0.58400
O217        O  0.53046479  0.89091294  0.34832906    -0.48500
O218        O  0.47126185  0.91115307  0.30068767    -0.54800
C219        C  0.45131219  0.85843937  0.35064965     0.85200
O220        O  0.49395834  0.81879232  0.29240500    -0.56700
O221        O  0.54534282  0.84636614  0.33061076    -0.60000
In222      In  0.49824050  0.12404654  0.30779274     1.36900
C223        C  0.49393964  0.06442874  0.28667715     0.77700
O224        O  0.54402108  0.14570016  0.32394050    -0.60800
O225        O  0.52896740  0.10298436  0.34564335    -0.51700
C226        C  0.49662778  0.16872040  0.26158203     0.70300
O227        O  0.48786175  0.17354310  0.28987192    -0.46500
C228        C  0.44953189  0.13319497  0.34757833     0.75000
O229        O  0.51935160  0.07966859  0.28575906    -0.58400
O230        O  0.47749251  0.13895041  0.35508647    -0.48500
O231        O  0.47062764  0.08060429  0.29613535    -0.54800
C232        C  0.54934108  0.12450405  0.34468765     0.85200
O233        O  0.50649852  0.14080892  0.25688719    -0.56700
O234        O  0.44660739  0.12384900  0.31933029    -0.60000
In235      In  0.30766401  0.12993640  0.48983156     1.36900
C236        C  0.28171577  0.07272855  0.49160025     0.77700
O237        O  0.32812866  0.11681361  0.44219595    -0.60800
O238        O  0.34847665  0.15507167  0.46675899    -0.51700
C239        C  0.25990200  0.17219234  0.48853811     0.70300
O240        O  0.27710950  0.16643200  0.46464285    -0.46500
C241        C  0.34831085  0.12865524  0.53786679     0.75000
O242        O  0.28950090  0.08656880  0.46598780    -0.58400
O243        O  0.34311874  0.10510456  0.52045812    -0.48500
O244        O  0.28488751  0.08942991  0.51608037    -0.54800
C245        C  0.34955398  0.13729988  0.44270623     0.85200
O246        O  0.26734163  0.15634547  0.51284267    -0.56700
O247        O  0.33274245  0.15326994  0.53041239    -0.60000
In248      In  0.30907924  0.87934832  0.49092643     1.36900
C249        C  0.28424423  0.93759059  0.49102064     0.77700
O250        O  0.33141411  0.85470415  0.53293291    -0.60800
O251        O  0.34637321  0.90106133  0.52076893    -0.51700
C252        C  0.26018815  0.83957178  0.48825103     0.70300
O253        O  0.26572700  0.85638820  0.51215780    -0.46500
C254        C  0.35027478  0.86850399  0.44376801     0.75000
O255        O  0.29161289  0.92289156  0.46595752    -0.58400
O256        O  0.34848198  0.85117182  0.46838959    -0.48500
O257        O  0.28808366  0.92160556  0.51621245    -0.54800
C258        C  0.34929394  0.87752701  0.53929218     0.85200
O259        O  0.27966247  0.84331309  0.46583560    -0.56700
O260        O  0.33055745  0.89105732  0.44318873    -0.60000
In261      In  0.12668843  0.50911218  0.30512620     1.36900
C262        C  0.06804083  0.50616869  0.28314315     0.77700
O263        O  0.12221286  0.45772092  0.31904069    -0.60800
O264        O  0.14405204  0.48863445  0.35136569    -0.51700
C265        C  0.17033823  0.50956086  0.25822335     0.70300
O266        O  0.16987754  0.48922526  0.28029216    -0.46500
C267        C  0.12803911  0.55898110  0.34405734     0.75000
O268        O  0.08357706  0.53153300  0.28319040    -0.58400
O269        O  0.15173507  0.54982131  0.32811063    -0.48500
O270        O  0.08351555  0.48209846  0.29195373    -0.54800
C271        C  0.13489267  0.46082410  0.34581591     0.85200
O272        O  0.14776778  0.52904593  0.25952095    -0.56700
O273        O  0.10382660  0.54258269  0.33996846    -0.60000
In274      In  0.87348417  0.50122982  0.30631033     1.36900
C275        C  0.93272359  0.50396612  0.28497236     0.77700
O276        O  0.89137176  0.52543657  0.34898311    -0.60800
O277        O  0.85728768  0.55007281  0.32157786    -0.51700
C278        C  0.82915498  0.50107233  0.26147217     0.70300
O279        O  0.85808625  0.50270339  0.25512000    -0.46500
C280        C  0.86341725  0.45074986  0.34369425     0.75000
O281        O  0.91497668  0.52808533  0.28660244    -0.58400
O282        O  0.85349366  0.47824479  0.35002754    -0.48500
O283        O  0.91922563  0.47819901  0.29199887    -0.54800
C284        C  0.87493421  0.55020912  0.34556573     0.85200
O285        O  0.82298708  0.49996615  0.29082391    -0.56700
O286        O  0.87784866  0.44873626  0.31731846    -0.60000
In287      In  0.12224548  0.31994377  0.48935333     1.36900
C288        C  0.06362150  0.29758944  0.48704423     0.77700
O289        O  0.14792722  0.34383336  0.52942086    -0.60800
O290        O  0.09969840  0.35450764  0.52328868    -0.51700
C291        C  0.16293370  0.27059976  0.48715761     0.70300
O292        O  0.15953554  0.29036979  0.46487397    -0.46500
C293        C  0.13273369  0.36215104  0.44273927     0.75000
O294        O  0.08026318  0.29541259  0.51163184    -0.58400
O295        O  0.14507521  0.36394954  0.46980093    -0.48500
O296        O  0.07762537  0.30987303  0.46347823    -0.54800
C297        C  0.12418852  0.35940538  0.53903897     0.85200
O298        O  0.14510270  0.27587266  0.51069738    -0.56700
O299        O  0.11613939  0.33781123  0.43901525    -0.60000
In300      In  0.86986204  0.31383018  0.49061300     1.36900
C301        C  0.92890611  0.29265802  0.48998710     0.77700
O302        O  0.87558102  0.32539022  0.43852292    -0.60800
O303        O  0.85048496  0.35804835  0.46732329    -0.51700
C304        C  0.82629727  0.26814184  0.49116957     0.70300
O305        O  0.82016079  0.29719046  0.48746587    -0.46500
C306        C  0.87026068  0.35205923  0.54098772     0.75000
O307        O  0.91262814  0.29455144  0.51526707    -0.58400
O308        O  0.85124521  0.32937135  0.53878259    -0.48500
O309        O  0.91395780  0.29929007  0.46499327    -0.54800
C310        C  0.86178987  0.35193610  0.44016312     0.85200
O311        O  0.85517069  0.26217759  0.49420379    -0.56700
O312        O  0.88912047  0.35446864  0.51775458    -0.60000
C313        C  0.02981796  0.28894017  0.48668061    -0.00100
C314        C  0.01399716  0.28399016  0.51587084    -0.11900
C315        C  0.98110145  0.28250993  0.51749796     0.02200
C316        C  0.96331785  0.28615809  0.48942176    -0.00200
C317        C  0.97933329  0.28779192  0.45997965    -0.11900
C318        C  0.01217466  0.28906368  0.45833374     0.02100
H319        H  0.02720603  0.28302189  0.53779156     0.15000
H320        H  0.96614424  0.28966560  0.43808679     0.15000
C321        C  0.02683528  0.29130156  0.42718625     0.36700
C322        C  0.96642456  0.27867257  0.54847482     0.36600
N323        N  0.03836741  0.29296475  0.40211723    -0.43700
N324        N  0.95469871  0.27553285  0.57331472    -0.43700
C325        C  0.86007359  0.37481311  0.41311838    -0.00100
C326        C  0.83833412  0.40005434  0.41492561    -0.11900
C327        C  0.83801200  0.42428707  0.39188505     0.02200
C328        C  0.85988196  0.42363750  0.36622821    -0.00200
C329        C  0.88069820  0.39768459  0.36362548    -0.11900
C330        C  0.88114495  0.37351412  0.38679107     0.02100
H331        H  0.82184907  0.40123543  0.43480437     0.15000
H332        H  0.89772866  0.39697075  0.34419826     0.15000
C333        C  0.90485748  0.34889485  0.38386769     0.36700
C334        C  0.81505678  0.44956204  0.39541349     0.36600
N335        N  0.92393891  0.32923268  0.38165114    -0.43700
N336        N  0.79670001  0.46984426  0.39821161    -0.43700
C337        C  0.13750054  0.43458349  0.36954378    -0.00100
C338        C  0.14225888  0.44242642  0.40156570    -0.11900
C339        C  0.14149698  0.41919659  0.42560409     0.02200
C340        C  0.13636124  0.38706921  0.41779090    -0.00200
C341        C  0.13271810  0.37898455  0.38564732    -0.11900
C342        C  0.13335433  0.40230597  0.36156435     0.02100
H343        H  0.14524961  0.46707679  0.40812384     0.15000
H344        H  0.12903047  0.35437595  0.37932801     0.15000
C345        C  0.12978440  0.39235479  0.32896843     0.36700
C346        C  0.14368109  0.42949797  0.45824268     0.36600
N347        N  0.12698206  0.38445519  0.30281718    -0.43700
N348        N  0.14516491  0.43776839  0.48440465    -0.43700
C349        C  0.03379354  0.50533860  0.27644504    -0.00100
C350        C  0.01674725  0.53409870  0.27624106    -0.11900
C351        C  0.98377372  0.53451531  0.27687431     0.02200
C352        C  0.96705606  0.50555848  0.27780114    -0.00200
C353        C  0.98413730  0.47693281  0.27529020    -0.11900
C354        C  0.01706946  0.47655095  0.27444178     0.02100
H355        H  0.02916979  0.55644350  0.27735276     0.15000
H356        H  0.97176141  0.45452120  0.27518336     0.15000
C357        C  0.03287124  0.44612706  0.27219692     0.36700
C358        C  0.96810111  0.56506611  0.27819290     0.36600
N359        N  0.04538012  0.42167263  0.27026657    -0.43700
N360        N  0.95579478  0.58968461  0.27916880    -0.43700
C361        C  0.23363124  0.19587071  0.48808139    -0.00100
C362        C  0.22843135  0.21370449  0.46015469    -0.11900
C363        C  0.20515188  0.23748093  0.45895411     0.02200
C364        C  0.18636302  0.24405330  0.48624443    -0.00200
C365        C  0.19081523  0.22545161  0.51380940    -0.11900
C366        C  0.21401113  0.20158700  0.51496449     0.02100
H367        H  0.24290505  0.20938336  0.43915727     0.15000
H368        H  0.17642898  0.22986033  0.53484869     0.15000
C369        C  0.21710392  0.18354384  0.54419311     0.36700
C370        C  0.20134965  0.25475289  0.42935327     0.36600
N371        N  0.21969820  0.16894358  0.56751510    -0.43700
N372        N  0.19823084  0.26864265  0.40567226    -0.43700
C373        C  0.27296466  0.03869729  0.49266182    -0.00100
C374        C  0.27083898  0.02256682  0.46364594    -0.11900
C375        C  0.27171376  0.98939887  0.46258930     0.02200
C376        C  0.27468252  0.97159593  0.49111412    -0.00200
C377        C  0.27278972  0.98761575  0.52035091    -0.11900
C378        C  0.27194409  0.02089096  0.52140380     0.02100
H379        H  0.27065078  0.03587650  0.44142692     0.15000
H380        H  0.27416208  0.97427184  0.54249755     0.15000
C381        C  0.27236698  0.03584659  0.55225749     0.36700
C382        C  0.27152465  0.97457650  0.43168756     0.36600
N383        N  0.27274950  0.04784919  0.57696133    -0.43700
N384        N  0.27151667  0.96262549  0.40695795    -0.43700
C385        C  0.42272047  0.13632544  0.37044375    -0.00100
C386        C  0.42720660  0.15267518  0.39907627    -0.11900
C387        C  0.40335423  0.15457248  0.42235533     0.02200
C388        C  0.37437688  0.13921397  0.41755927    -0.00200
C389        C  0.36966153  0.12346633  0.38865491    -0.11900
C390        C  0.39322698  0.12218509  0.36508756     0.02100
H391        H  0.44957491  0.16388283  0.40346301     0.15000
H392        H  0.34749073  0.11177390  0.38449775     0.15000
C393        C  0.38657728  0.10542516  0.33608550     0.36700
C394        C  0.40972046  0.17173812  0.45119061     0.36600
N395        N  0.38126575  0.09212894  0.31276244    -0.43700
N396        N  0.41467906  0.18562655  0.47424941    -0.43700
C397        C  0.37439567  0.86337911  0.41839861    -0.00100
C398        C  0.40165866  0.84593103  0.42592755    -0.11900
C399        C  0.42669971  0.84313071  0.40409941     0.02200
C400        C  0.42438019  0.85719179  0.37347745    -0.00200
C401        C  0.39641934  0.87317895  0.36538559    -0.11900
C402        C  0.37176717  0.87677042  0.38752575     0.02100
H403        H  0.40404681  0.83552907  0.44951109     0.15000
H404        H  0.39425385  0.88418695  0.34205097     0.15000
C405        C  0.34441499  0.89482144  0.37789088     0.36700
C406        C  0.45474861  0.82656443  0.41430717     0.36600
N407        N  0.32265955  0.90947749  0.37004640    -0.43700
N408        N  0.47732279  0.81352925  0.42258647    -0.43700
C409        C  0.49088159  0.96236688  0.28376727    -0.00100
C410        C  0.51640529  0.97833098  0.26957867    -0.11900
C411        C  0.51692180  0.01163528  0.26756082     0.02200
C412        C  0.49178810  0.02972226  0.28057449    -0.00200
C413        C  0.46509038  0.01366360  0.29206677    -0.11900
C414        C  0.46434294  0.98044119  0.29374480     0.02100
H415        H  0.53651723  0.96481211  0.26086989     0.15000
H416        H  0.44527583  0.02710469  0.30159070     0.15000
C417        C  0.43671489  0.96595950  0.30775081     0.36700
C418        C  0.54355217  0.02642755  0.25207064     0.36600
N419        N  0.41456706  0.95443373  0.31900382    -0.43700
N420        N  0.56483525  0.03802876  0.23926084    -0.43700
C421        C  0.62555653  0.87292531  0.41778044    -0.00100
C422        C  0.61847496  0.84397466  0.40322789    -0.11900
C423        C  0.59448842  0.84195622  0.38073050     0.02200
C424        C  0.57749470  0.86955037  0.37169283    -0.00200
C425        C  0.58540964  0.89871523  0.38539828    -0.11900
C426        C  0.60903447  0.90066612  0.40822474     0.02100
H427        H  0.63071577  0.82246128  0.41055899     0.15000
H428        H  0.57279690  0.92016874  0.37854575     0.15000
C429        C  0.61576414  0.93155399  0.42114546     0.36700
C430        C  0.58651543  0.81089284  0.36915942     0.36600
N431        N  0.62094410  0.95643365  0.43127808    -0.43700
N432        N  0.58002021  0.78588546  0.36022820    -0.43700
C433        C  0.62298316  0.12428771  0.41496604    -0.00100
C434        C  0.61893811  0.15091362  0.39497293    -0.11900
C435        C  0.59596535  0.15136018  0.37113865     0.02200
C436        C  0.57634983  0.12471243  0.36704190    -0.00200
C437        C  0.58158666  0.09759722  0.38612447    -0.11900
C438        C  0.60465129  0.09707969  0.40963747     0.02100
H439        H  0.63308853  0.17184257  0.39861668     0.15000
H440        H  0.56740267  0.07661718  0.38289112     0.15000
C441        C  0.60960261  0.06793966  0.42739430     0.36700
C442        C  0.59263562  0.17981124  0.35199511     0.36600
N443        N  0.61391196  0.04463338  0.44156761    -0.43700
N444        N  0.59013771  0.20264741  0.33665009    -0.43700
C445        C  0.75537922  0.19496723  0.49139758    -0.00100
C446        C  0.74699394  0.22684801  0.49682166    -0.11900
C447        C  0.76959103  0.25079199  0.49729033     0.02200
C448        C  0.80165623  0.24327811  0.49178824    -0.00200
C449        C  0.81021625  0.21139396  0.48653499    -0.11900
C450        C  0.78753283  0.18732604  0.48621212     0.02100
H451        H  0.72255968  0.23317943  0.50120617     0.15000
H452        H  0.83470906  0.20524911  0.48222862     0.15000
C453        C  0.79804785  0.15528392  0.47976452     0.36700
C454        C  0.75911415  0.28267187  0.50464806     0.36600
N455        N  0.80672366  0.12969406  0.47450567    -0.43700
N456        N  0.75079430  0.30819997  0.51069510    -0.43700
C457        C  0.71248697  0.96564995  0.49777359    -0.00100
C458        C  0.71445672  0.98181189  0.46838290    -0.11900
C459        C  0.71294100  0.01507269  0.46657463     0.02200
C460        C  0.70986419  0.03317514  0.49473587    -0.00200
C461        C  0.71050555  0.01710577  0.52424883    -0.11900
C462        C  0.71169051  0.98378786  0.52604003     0.02100
H463        H  0.71526946  0.96839633  0.44643257     0.15000
H464        H  0.70867606  0.03054756  0.54613817     0.15000
C465        C  0.71076330  0.96909078  0.55724873     0.36700
C466        C  0.71245853  0.02959481  0.43529963     0.36600
N467        N  0.70994984  0.95746175  0.58232545    -0.43700
N468        N  0.71187416  0.04121336  0.41022606    -0.43700
C469        C  0.41753120  0.12853544  0.61253614    -0.00100
C470        C  0.40617216  0.09960491  0.60096674    -0.11900
C471        C  0.38332736  0.09891805  0.57712909     0.02200
C472        C  0.37118541  0.12773196  0.56440930    -0.00200
C473        C  0.38188562  0.15656508  0.57668325    -0.11900
C474        C  0.40489776  0.15722070  0.60027546     0.02100
H475        H  0.41549945  0.07737669  0.61027821     0.15000
H476        H  0.37301992  0.17884478  0.56704517     0.15000
C477        C  0.41654753  0.18774685  0.60980856     0.36700
C478        C  0.37302050  0.06830932  0.56612578     0.36600
N479        N  0.42605205  0.21222305  0.61725942    -0.43700
N480        N  0.36474547  0.04389503  0.55708188    -0.43700
C481        C  0.56870307  0.14231689  0.61217921    -0.00100
C482        C  0.59849596  0.13040514  0.62057629    -0.11900
C483        C  0.62405006  0.13137131  0.59912115     0.02200
C484        C  0.62008672  0.14423854  0.56816437    -0.00200
C485        C  0.59083398  0.15794117  0.56051196    -0.11900
C486        C  0.56535475  0.15719792  0.58202245     0.02100
H487        H  0.60178598  0.11964559  0.64387660     0.15000
H488        H  0.58737069  0.16829979  0.53706043     0.15000
C489        C  0.53591657  0.17099718  0.57180026     0.36700
C490        C  0.65380555  0.11857057  0.60961276     0.36600
N491        N  0.51241669  0.18214864  0.56346434    -0.43700
N492        N  0.67758446  0.10836074  0.61829259    -0.43700
C493        C  0.41989894  0.87719531  0.61259449    -0.00100
C494        C  0.40035451  0.85076364  0.60913145    -0.11900
C495        C  0.37650081  0.85061436  0.58634150     0.02200
C496        C  0.37232735  0.87706268  0.56573767    -0.00200
C497        C  0.39099522  0.90401676  0.57022661    -0.11900
C498        C  0.41416691  0.90453231  0.59361075     0.02100
H499        H  0.40389506  0.82991889  0.62406853     0.15000
H500        H  0.38749132  0.92496699  0.55542675     0.15000
C501        C  0.43089200  0.93385358  0.59815791     0.36700
C502        C  0.35649014  0.82316344  0.58513075     0.36600
N503        N  0.44404826  0.95742946  0.60205774    -0.43700
N504        N  0.34020882  0.80131294  0.58442309    -0.43700
C505        C  0.57178176  0.85737385  0.61377743    -0.00100
C506        C  0.60117940  0.86965426  0.62213893    -0.11900
C507        C  0.62654070  0.86977684  0.60045163     0.02200
C508        C  0.62258288  0.85786424  0.56936855    -0.00200
C509        C  0.59378716  0.84401687  0.56169595    -0.11900
C510        C  0.56863472  0.84347001  0.58340604     0.02100
H511        H  0.60427418  0.87982402  0.64553370     0.15000
H512        H  0.59048660  0.83418439  0.53817621     0.15000
C513        C  0.53992626  0.82882348  0.57323695     0.36700
C514        C  0.65614402  0.88229912  0.61087869     0.36600
N515        N  0.51717939  0.81687389  0.56467407    -0.43700
N516        N  0.67991041  0.89209375  0.61940538    -0.43700
C517        C  0.49917328  0.96575426  0.70440961    -0.00100
C518        C  0.47036234  0.98187600  0.70854610    -0.11900
C519        C  0.46879045  0.01512213  0.70909750     0.02200
C520        C  0.49648904  0.03310491  0.70480022    -0.00200
C521        C  0.52555549  0.01696786  0.70379684    -0.11900
C522        C  0.52716197  0.98366832  0.70385458     0.02100
H523        H  0.44868714  0.96854988  0.70990937     0.15000
H524        H  0.54713917  0.03035194  0.70152332     0.15000
C525        C  0.55784838  0.96875916  0.70254751     0.36700
C526        C  0.43824794  0.02991256  0.71312010     0.36600
N527        N  0.58250061  0.95691656  0.70170174    -0.43700
N528        N  0.41380016  0.04177047  0.71654029    -0.43700
C529        C  0.12898183  0.58578345  0.36673955    -0.00100
C530        C  0.15777949  0.59340996  0.38061688    -0.11900
C531        C  0.15950491  0.61633000  0.40456949     0.02200
C532        C  0.13194181  0.63248589  0.41489063    -0.00200
C533        C  0.10344882  0.62599277  0.39973867    -0.11900
C534        C  0.10168352  0.60288700  0.37604881     0.02100
H535        H  0.17894703  0.58063090  0.37350243     0.15000
H536        H  0.08212024  0.63841804  0.40698554     0.15000
C537        C  0.07152188  0.59756918  0.36167653     0.36700
C538        C  0.18983612  0.62226726  0.41824774     0.36600
N539        N  0.04723034  0.59359990  0.35032582    -0.43700
N540        N  0.21421678  0.62691701  0.42911693    -0.43700
C541        C  0.18740046  0.76854562  0.49053101    -0.00100
C542        C  0.20540713  0.77336339  0.46261751    -0.11900
C543        C  0.22820337  0.79715556  0.46065116     0.02200
C544        C  0.23376855  0.81666168  0.48727733    -0.00200
C545        C  0.21453709  0.81305851  0.51449671    -0.11900
C546        C  0.19154761  0.78944693  0.51635809     0.02100
H547        H  0.20206971  0.75810292  0.44226135     0.15000
H548        H  0.21798519  0.82823436  0.53489528     0.15000
C549        C  0.17333972  0.78692187  0.54549834     0.36700
C550        C  0.24560595  0.80054209  0.43106182     0.36600
N551        N  0.15886415  0.78510512  0.56895665    -0.43700
N552        N  0.25942707  0.80323623  0.40728065    -0.43700
C553        C  0.87587733  0.57665066  0.36849968    -0.00100
C554        C  0.84985686  0.59724020  0.37129553    -0.11900
C555        C  0.84838827  0.62032918  0.39518642     0.02200
C556        C  0.87341818  0.62302969  0.41683931    -0.00200
C557        C  0.90009117  0.60350809  0.41283849    -0.11900
C558        C  0.90160558  0.58059259  0.38901776     0.02100
H559        H  0.83007586  0.59455065  0.35552554     0.15000
H560        H  0.91984623  0.60583535  0.42871123     0.15000
C561        C  0.92997991  0.56159840  0.38626121     0.36700
C562        C  0.82036903  0.63979791  0.39755960     0.36600
N563        N  0.95267365  0.54635857  0.38403205    -0.43700
N564        N  0.79779883  0.65528568  0.39919671    -0.43700
C565        C  0.80317549  0.75223174  0.49733172    -0.00100
C566        C  0.81047448  0.78265768  0.48562413    -0.11900
C567        C  0.78790125  0.80710372  0.48506937     0.02200
C568        C  0.75697213  0.80148343  0.49641120    -0.00200
C569        C  0.74972192  0.77105984  0.50841487    -0.11900
C570        C  0.77233976  0.74658821  0.50902764     0.02100
H571        H  0.83399250  0.78745641  0.47667804     0.15000
H572        H  0.72620585  0.76625648  0.51735918     0.15000
C573        C  0.76315138  0.71607299  0.52197936     0.36700
C574        C  0.79739896  0.83768334  0.47271985     0.36600
N575        N  0.75607507  0.69154392  0.53232998    -0.43700
N576        N  0.80497322  0.86223185  0.46284594    -0.43700
C577        C  0.96546566  0.70886294  0.49660586    -0.00100
C578        C  0.98126599  0.70501962  0.52559544    -0.11900
C579        C  0.01409143  0.70532692  0.52673513     0.02200
C580        C  0.03188640  0.70971971  0.49847594     0.02200
C581        C  0.01618962  0.71601160  0.46986661    -0.11900
C582        C  0.98326040  0.71557389  0.46865493     0.02100
H583        H  0.96803749  0.70036201  0.54736202     0.15000
H584        H  0.02967863  0.71974436  0.44808011     0.15000
C585        C  0.96856299  0.72147497  0.43831822     0.36700
C586        C  0.02893650  0.70088976  0.55723603     0.36600
N587        N  0.95677269  0.72628864  0.41402747    -0.43700
N588        N  0.04096227  0.69744263  0.58161660    -0.43700
C589        C  0.87077747  0.37457174  0.56801076    -0.00100
C590        C  0.89744127  0.39360845  0.57130851    -0.11900
C591        C  0.89895320  0.41672797  0.59492867     0.02200
C592        C  0.87314626  0.42150078  0.61602289    -0.00200
C593        C  0.84658574  0.40216281  0.61304253    -0.11900
C594        C  0.84526694  0.37870242  0.58953962     0.02100
H595        H  0.91730437  0.39062197  0.55511704     0.15000
H596        H  0.82663301  0.40545231  0.62904372     0.15000
C597        C  0.81716182  0.35986842  0.58778680     0.36700
C598        C  0.92711215  0.43559040  0.59613663     0.36600
N599        N  0.79461389  0.34477029  0.58660480    -0.43700
N600        N  0.94970875  0.45064420  0.59703399    -0.43700
C601        C  0.85817729  0.56949196  0.61794064    -0.00100
C602        C  0.86896940  0.59989311  0.62587239    -0.11900
C603        C  0.86959593  0.62469725  0.60332593     0.02200
C604        C  0.85938561  0.61923517  0.57191246    -0.00200
C605        C  0.84685008  0.58945368  0.56465094    -0.11900
C606        C  0.84613519  0.56475380  0.58708520     0.02100
H607        H  0.87774796  0.60417316  0.64958557     0.15000
H608        H  0.83839410  0.58495059  0.54085268     0.15000
C609        C  0.83363699  0.53471026  0.57705900     0.36700
C610        C  0.88105928  0.65521543  0.61321512     0.36600
N611        N  0.82356326  0.51079411  0.56864221    -0.43700
N612        N  0.89015144  0.67962568  0.62140159    -0.43700
C613        C  0.12516440  0.38222540  0.56589865    -0.00100
C614        C  0.15389848  0.39620693  0.57372210    -0.11900
C615        C  0.15555929  0.41950792  0.59741134     0.02200
C616        C  0.12802358  0.42898057  0.61428631    -0.00200
C617        C  0.09953179  0.41414318  0.60709873    -0.11900
C618        C  0.09781940  0.39124290  0.58316442     0.02100
H619        H  0.17506891  0.38957857  0.56063923     0.15000
H620        H  0.07819522  0.42082959  0.61986627     0.15000
C621        C  0.06760351  0.37731273  0.57708155     0.36700
C622        C  0.18575751  0.43356310  0.60326937     0.36600
N623        N  0.04337280  0.36621385  0.57216009    -0.43700
N624        N  0.20997810  0.44484125  0.60785537    -0.43700
C625        C  0.14143100  0.57979249  0.61800433    -0.00100
C626        C  0.15609750  0.57332535  0.58853297    -0.11900
C627        C  0.15735547  0.59624775  0.56416001     0.02200
C628        C  0.14409049  0.62678642  0.56904647    -0.00200
C629        C  0.13117411  0.63393431  0.59914802    -0.11900
C630        C  0.12950611  0.61083675  0.62342565     0.02100
H631        H  0.16568944  0.54981768  0.58397200     0.15000
H632        H  0.12096001  0.65724807  0.60332067     0.15000
C633        C  0.11441605  0.61955127  0.65313114     0.36700
C634        C  0.17191313  0.58742213  0.53419929     0.36600
N635        N  0.10220399  0.62657433  0.67687032    -0.43700
N636        N  0.18346264  0.58040534  0.51012626    -0.43700
C637        C  0.96527480  0.50018273  0.71146266    -0.00100
C638        C  0.98008909  0.52972721  0.70799543    -0.11900
C639        C  0.01284576  0.53201966  0.70699052     0.02200
C640        C  0.03163702  0.50430658  0.70923022    -0.00200
C641        C  0.01704195  0.47524137  0.71631218    -0.11900
C642        C  0.98410729  0.47294543  0.71758641     0.02100
H643        H  0.96604744  0.55108973  0.70454211     0.15000
H644        H  0.03128463  0.45389035  0.71884769     0.15000
C645        C  0.97056727  0.44208445  0.72341522     0.36700
C646        C  0.02648581  0.56314426  0.70330733     0.36600
N647        N  0.95987367  0.41729857  0.72826016    -0.43700
N648        N  0.03725436  0.58818296  0.70061150    -0.43700
C649        C  0.50748662  0.75813851  0.18697188    -0.00100
C650        C  0.50460149  0.74729594  0.21860728    -0.11900
C651        C  0.50298753  0.76850825  0.24412312     0.02200
C652        C  0.50468319  0.80163877  0.23836648    -0.00200
C653        C  0.50809392  0.81247506  0.20672877    -0.11900
C654        C  0.50934683  0.79119899  0.18115443     0.02100
H655        H  0.50311568  0.72200384  0.22350729     0.15000
H656        H  0.50955746  0.83776435  0.20184798     0.15000
C657        C  0.51321200  0.80404310  0.14936261     0.36700
C658        C  0.49988101  0.75529579  0.27585796     0.36600
N659        N  0.51636781  0.81439916  0.12390781    -0.43700
N660        N  0.49732989  0.74450211  0.30119775    -0.43700
C661        C  0.49539668  0.75327917  0.79270331    -0.00100
C662        C  0.47321342  0.77817628  0.79481939    -0.11900
C663        C  0.47214348  0.80250024  0.77174006     0.02200
C664        C  0.49376296  0.80238028  0.74586759    -0.00200
C665        C  0.51587248  0.77748602  0.74376099    -0.11900
C666        C  0.51701461  0.75325021  0.76678794     0.02100
H667        H  0.45630014  0.77845912  0.81436168     0.15000
H668        H  0.53273773  0.77712202  0.72416833     0.15000
C669        C  0.54123547  0.72918825  0.76344427     0.36700
C670        C  0.44786467  0.82653032  0.77465614     0.36600
N671        N  0.56068485  0.70993972  0.76087568    -0.43700
N672        N  0.42831084  0.84570767  0.77690669    -0.43700
C673        C  0.50195250  0.71247584  0.95453587    -0.00100
C674        C  0.53176171  0.71242173  0.96868654    -0.11900
C675        C  0.53493122  0.71461418  0.00181614     0.02200
C676        C  0.50785314  0.71700040  0.02153367    -0.00200
C677        C  0.47834148  0.72007000  0.00715383    -0.11900
C678        C  0.47510668  0.71765261  0.97412873     0.02100
H679        H  0.55268536  0.70913423  0.95401503     0.15000
H680        H  0.45732494  0.72228256  0.02189843     0.15000
C681        C  0.44369713  0.71896272  0.96149687     0.36700
C682        C  0.56618056  0.71352294  0.01485997     0.36600
N683        N  0.41846552  0.71989354  0.95151982    -0.43700
N684        N  0.59122809  0.71274569  0.02530451    -0.43700
C685        C  0.80434640  0.50039708  0.23685962    -0.00100
C686        C  0.77299685  0.50638203  0.24609019    -0.11900
C687        C  0.74860930  0.50557871  0.22397367     0.02200
C688        C  0.75534416  0.49867407  0.19162564    -0.00200
C689        C  0.78666061  0.49249543  0.18246717    -0.11900
C690        C  0.81102485  0.49325656  0.20460802     0.02100
H691        H  0.76742347  0.51167261  0.27078210     0.15000
H692        H  0.79221974  0.48696442  0.15783170     0.15000
C693        C  0.84244620  0.48554289  0.19362911     0.36700
C694        C  0.71689581  0.51107269  0.23549833     0.36600
N695        N  0.86764510  0.47924320  0.18494562    -0.43700
N696        N  0.69145668  0.51535969  0.24468456    -0.43700
C697        C  0.61925797  0.56929961  0.12675671    -0.00100
C698        C  0.62942711  0.60091904  0.12388257    -0.11900
C699        C  0.60788579  0.62636478  0.12268475     0.02200
C700        C  0.57525461  0.62050178  0.12524541    -0.00200
C701        C  0.56520006  0.58894480  0.12874526    -0.11900
C702        C  0.58658032  0.56351163  0.12904447     0.02100
H703        H  0.65434766  0.60582479  0.12178946     0.15000
H704        H  0.54028144  0.58387517  0.13042358     0.15000
C705        C  0.57387875  0.53181103  0.13058716     0.36700
C706        C  0.62008636  0.65795437  0.11782811     0.36600
N707        N  0.56351556  0.50648460  0.13148482    -0.43700
N708        N  0.62997761  0.68319356  0.11365699    -0.43700
C709        C  0.75631502  0.49622775  0.80115058    -0.00100
C710        C  0.77676440  0.46989472  0.79924538    -0.11900
C711        C  0.80120134  0.46872082  0.77652087     0.02200
C712        C  0.80550249  0.49432424  0.75487050    -0.00200
C713        C  0.78556346  0.52103564  0.75748229    -0.11900
C714        C  0.76137004  0.52230951  0.78035492     0.02100
H715        H  0.77341504  0.44987322  0.81532264     0.15000
H716        H  0.78882394  0.54118914  0.74155468     0.15000
C717        C  0.74286474  0.55117737  0.78255546     0.36700
C718        C  0.82133810  0.44092549  0.77620847     0.36600
N719        N  0.72816792  0.57437184  0.78451450    -0.43700
N720        N  0.83746926  0.41863311  0.77615552    -0.43700
C721        C  0.61621529  0.56757052  0.85317122    -0.00100
C722        C  0.58578841  0.55949992  0.84349827    -0.11900
C723        C  0.56146845  0.58219860  0.84237257     0.02200
C724        C  0.56734493  0.61407880  0.85085942    -0.00200
C725        C  0.59802632  0.62241507  0.85923407    -0.11900
C726        C  0.62230628  0.59970624  0.86045680     0.02100
H727        H  0.58065514  0.53507950  0.83754997     0.15000
H728        H  0.60302429  0.64675304  0.86562783     0.15000
C729        C  0.65290288  0.61022692  0.87015017     0.36700
C730        C  0.53054406  0.57160934  0.83364696     0.36600
N731        N  0.67734544  0.61890316  0.87794003    -0.43700
N732        N  0.50570083  0.56320118  0.82683849    -0.43700
C733        C  0.71117223  0.50260348  0.96082719    -0.00100
C734        C  0.72231004  0.47535500  0.97693641    -0.11900
C735        C  0.72379364  0.47430308  0.01036883     0.02200
C736        C  0.71390303  0.50093158  0.02838926    -0.00200
C737        C  0.70601567  0.52911966  0.01209630    -0.11900
C738        C  0.70459648  0.53023798  0.97880551     0.02100
H739        H  0.72838711  0.45420501  0.96353546     0.15000
H740        H  0.69907741  0.55005586  0.02544455     0.15000
C741        C  0.69474751  0.55978068  0.96412419     0.36700
C742        C  0.73452949  0.44527567  0.02543862     0.36600
N743        N  0.68679041  0.58347471  0.95244452    -0.43700
N744        N  0.74319951  0.42206418  0.03757352    -0.43700
C745        C  0.24537107  0.51054655  0.18774477    -0.00100
C746        C  0.22681398  0.53788253  0.19267632    -0.11900
C747        C  0.20228036  0.53815024  0.21532420     0.02200
C748        C  0.19558708  0.51046428  0.23340251    -0.00200
C749        C  0.21410226  0.48310016  0.22836270    -0.11900
C750        C  0.23867757  0.48285503  0.20580695     0.02100
H751        H  0.23184649  0.55936630  0.17918418     0.15000
H752        H  0.20920777  0.46163016  0.24193154     0.15000
C753        C  0.25584536  0.45347943  0.20096834     0.36700
C754        C  0.18529228  0.56756702  0.22038980     0.36600
N755        N  0.26956232  0.42995010  0.19693561    -0.43700
N756        N  0.17168993  0.59111458  0.22467711    -0.43700
C757        C  0.37391091  0.59260741  0.11835440    -0.00100
C758        C  0.38477989  0.60453403  0.14738166    -0.11900
C759        C  0.40865079  0.62728040  0.14812335     0.02200
C760        C  0.42251610  0.63819082  0.11933637    -0.00200
C761        C  0.41013192  0.62797495  0.09036016    -0.11900
C762        C  0.38588234  0.60577928  0.08956534     0.02100
H763        H  0.37543940  0.59523253  0.16969564     0.15000
H764        H  0.41991029  0.63688440  0.06805646     0.15000
C765        C  0.37426118  0.59689288  0.05872555     0.36700
C766        C  0.41935096  0.63775010  0.17877741     0.36600
N767        N  0.36500789  0.59008109  0.03390514    -0.43700
N768        N  0.42787293  0.64627350  0.20332341    -0.43700
C769        C  0.23859567  0.49674621  0.79958420    -0.00100
C770        C  0.22310310  0.52570870  0.79325526    -0.11900
C771        C  0.19900236  0.52790354  0.77080957     0.02200
C772        C  0.18955490  0.50052552  0.75418378    -0.00200
C773        C  0.20434704  0.47135725  0.76131675    -0.11900
C774        C  0.22868007  0.46923509  0.78350444     0.02100
H775        H  0.23027060  0.54701961  0.80546321     0.15000
H776        H  0.19728913  0.45003603  0.74906205     0.15000
C777        C  0.24269436  0.43836944  0.78923202     0.36700
C778        C  0.18485689  0.55873334  0.76522774     0.36600
N779        N  0.25369676  0.41347048  0.79351059    -0.43700
N780        N  0.17363924  0.58350866  0.76079845    -0.43700
C781        C  0.37080788  0.57503748  0.86093003    -0.00100
C782        C  0.38583533  0.58329979  0.83201637    -0.11900
C783        C  0.40924165  0.60659310  0.83082269     0.02200
C784        C  0.41826688  0.62190802  0.85901779    -0.00200
C785        C  0.40271780  0.61442232  0.88768011    -0.11900
C786        C  0.37892401  0.59168730  0.88886451     0.02100
H787        H  0.37995618  0.57091420  0.81036911     0.15000
H788        H  0.40928142  0.62638527  0.90938400     0.15000
C789        C  0.36348314  0.58618428  0.91923481     0.36700
C790        C  0.42492132  0.61293374  0.80076135     0.36600
N791        N  0.35112614  0.58207520  0.94362517    -0.43700
N792        N  0.43761273  0.61811478  0.77675684    -0.43700
C793        C  0.28446316  0.49148603  0.96035082    -0.00100
C794        C  0.27530217  0.52020781  0.97478815    -0.11900
C795        C  0.27610796  0.52377924  0.00797220     0.02200
C796        C  0.28642505  0.49824063  0.02742879    -0.00200
C797        C  0.29238928  0.46863971  0.01320185    -0.11900
C798        C  0.29134378  0.46500722  0.98008811     0.02100
H799        H  0.26939250  0.54063290  0.96005126     0.15000
H800        H  0.29935492  0.44850231  0.02786604     0.15000
C801        C  0.29850923  0.43406916  0.96710074     0.36700
C802        C  0.26817117  0.55450160  0.02102648     0.36600
N803        N  0.30420856  0.40926490  0.95670100    -0.43700
N804        N  0.26179038  0.57906291  0.03162126    -0.43700
C805        C  0.49481469  0.19246975  0.74959092    -0.00100
C806        C  0.51798385  0.21604876  0.74809046    -0.11900
C807        C  0.52010910  0.23934707  0.77158989     0.02200
C808        C  0.49895385  0.23930596  0.79784859    -0.00200
C809        C  0.47601186  0.21549940  0.79968964    -0.11900
C810        C  0.47360262  0.19238417  0.77585635     0.02100
H811        H  0.53461586  0.21644228  0.72829992     0.15000
H812        H  0.45936416  0.21536798  0.81946775     0.15000
C813        C  0.44856902  0.16957074  0.77864618     0.36700
C814        C  0.54454591  0.26275865  0.76809517     0.36600
N815        N  0.42841425  0.15137563  0.78088907    -0.43700
N816        N  0.56408982  0.28153117  0.76509486    -0.43700
C817        C  0.37855990  0.42382276  0.85474421    -0.00100
C818        C  0.41020846  0.43302667  0.85352842    -0.11900
C819        C  0.43464659  0.41062145  0.85421799     0.02200
C820        C  0.42780897  0.37781368  0.85599949    -0.00200
C821        C  0.39619728  0.36840744  0.85575507    -0.11900
C822        C  0.37163967  0.39096693  0.85518726     0.02100
H823        H  0.41607880  0.45804169  0.85273128     0.15000
H824        H  0.39057338  0.34333951  0.85679346     0.15000
C825        C  0.33975482  0.37953271  0.85531023     0.36700
C826        C  0.46648770  0.42229594  0.85314157     0.36600
N827        N  0.31425685  0.37018368  0.85533257    -0.43700
N828        N  0.49197868  0.43166934  0.85235452    -0.43700
C829        C  0.57966806  0.36622289  0.86278436    -0.00100
C830        C  0.58583410  0.38375346  0.83476952    -0.11900
C831        C  0.60825462  0.40793868  0.83396918     0.02200
C832        C  0.62528223  0.41501993  0.86165530    -0.00200
C833        C  0.62009800  0.39670175  0.88931250    -0.11900
C834        C  0.59769345  0.37246270  0.89014249     0.02100
H835        H  0.57223823  0.37938017  0.81359147     0.15000
H836        H  0.63311657  0.40184181  0.91069328     0.15000
C837        C  0.59282739  0.35564823  0.91990877     0.36700
C838        C  0.61143657  0.42659673  0.80510398     0.36600
N839        N  0.58900865  0.34230860  0.94384950    -0.43700
N840        N  0.61377472  0.44164826  0.78201230    -0.43700
C841        C  0.49535921  0.19406283  0.23653334    -0.00100
C842        C  0.48157223  0.22351578  0.24438438    -0.11900
C843        C  0.48088879  0.24886887  0.22252449     0.02200
C844        C  0.49355101  0.24495344  0.19144731    -0.00200
C845        C  0.50688625  0.21533190  0.18339088    -0.11900
C846        C  0.50813810  0.19015560  0.20551288     0.02100
H847        H  0.47179626  0.22710153  0.26807984     0.15000
H848        H  0.51696134  0.21190471  0.15979734     0.15000
C849        C  0.52365981  0.16108063  0.19587237     0.36700
C850        C  0.46839758  0.27894256  0.23344349     0.36600
N851        N  0.53630369  0.13787221  0.18816418    -0.43700
N852        N  0.45869544  0.30306422  0.24247403    -0.43700
C853        C  0.38439352  0.44035828  0.13172571    -0.00100
C854        C  0.37482746  0.40873598  0.12803234    -0.11900
C855        C  0.39657267  0.38350484  0.12808895     0.02200
C856        C  0.42889150  0.38947770  0.13260819    -0.00200
C857        C  0.43838483  0.42106513  0.13693379    -0.11900
C858        C  0.41669978  0.44636298  0.13633600     0.02100
H859        H  0.35022924  0.40364383  0.12419507     0.15000
H860        H  0.46305861  0.42621048  0.14020185     0.15000
C861        C  0.42862580  0.47817472  0.13968586     0.36700
C862        C  0.38494073  0.35204278  0.12200618     0.36600
N863        N  0.43820950  0.50366732  0.14222593    -0.43700
N864        N  0.37548622  0.32693186  0.11685470    -0.43700
C865        C  0.58133862  0.36952130  0.13068016    -0.00100
C866        C  0.58881167  0.38449829  0.15937493    -0.11900
C867        C  0.61246874  0.40751421  0.16042472     0.02200
C868        C  0.62961678  0.41538862  0.13238630    -0.00200
C869        C  0.62375833  0.39845606  0.10442592    -0.11900
C870        C  0.59989781  0.37592883  0.10324214     0.02100
H871        H  0.57485124  0.37970202  0.18063435     0.15000
H872        H  0.63707117  0.40374208  0.08285157     0.15000
C873        C  0.59453289  0.36055361  0.07316036     0.36700
C874        C  0.61674082  0.42418826  0.18994988     0.36600
N875        N  0.59016874  0.34840758  0.04899522    -0.43700
N876        N  0.61980569  0.43754069  0.21368812    -0.43700
C877        C  0.49040641  0.29110173  0.03057077    -0.00100
C878        C  0.51771317  0.28026537  0.01470838    -0.11900
C879        C  0.51913588  0.27841485  0.98134204     0.02200
C880        C  0.49287155  0.28790679  0.96307432    -0.00200
C881        C  0.46481004  0.29613712  0.97914855    -0.11900
C882        C  0.46326947  0.29756545  0.01244330     0.02100
H883        H  0.53857440  0.27457469  0.02828346     0.15000
H884        H  0.44412595  0.30263128  0.96563546     0.15000
C885        C  0.43358847  0.30623644  0.02718837     0.36700
C886        C  0.54824890  0.26783509  0.96672532     0.36600
N887        N  0.40980117  0.31303526  0.03907391    -0.43700
N888        N  0.57158755  0.25918141  0.95513625    -0.43700
loop_ 
_geom_bond_atom_site_label_1 
_geom_bond_atom_site_label_2 
_geom_bond_distance 
_geom_bond_site_symmetry_2 
_ccdc_geom_bond_type 
In1           O3   2.252       .  S
In1           O4   2.249       .  S
In1          O12   2.260       .  S
In1           O6   2.258       .  S
In1           O8   2.261       .  S
In1           O9   2.270       .  S
In1          O10   2.243       .  S
In1          O13   2.228       .  S
C2            O8   1.260       .  A
C2           O10   1.258       .  A
C2          C877   1.488       .  S
O3           C11   1.263       .  A
O4           C11   1.262       .  A
C5           O12   1.259       .  A
C5            O6   1.258       .  A
C5          C844   1.492       .  S
C7            O9   1.262       .  A
C7           O13   1.257       .  A
C7          C865   1.484       .  S
C11         C856   1.492       .  S
In14         O16   2.257       .  S
In14         O17   2.246       .  S
In14         O25   2.254       .  S
In14         O19   2.279       .  S
In14         O21   2.257       .  S
In14         O22   2.229       .  S
In14         O23   2.238       .  S
In14         O26   2.274       .  S
C15          O21   1.264       .  A
C15          O23   1.261       .  A
C15         C880   1.490       .  S
O16          C24   1.261       .  A
O17          C24   1.262       .  A
C18          O25   1.255       .  A
C18          O19   1.259       .  A
C18         C808   1.490       .  S
C20          O22   1.256       .  A
C20          O26   1.262       .  A
C20         C820   1.487       .  S
C24         C829   1.489       .  S
In27         O29   2.261       .  S
In27         O30   2.237       .  S
In27         O38   2.270       .  S
In27         O32   2.264       .  S
In27         O34   2.263       .  S
In27         O35   2.273       .  S
In27         O36   2.252       .  S
In27         O39   2.235       .  S
C28          O34   1.259       .  A
C28          O36   1.257       .  A
C28         C793   1.488       .  S
O29          C37   1.264       .  A
O30          C37   1.262       .  A
C31          O38   1.257       .  A
C31          O32   1.257       .  A
C31         C769   1.490       .  S
C33          O35   1.265       .  A
C33          O39   1.258       .  A
C33         C781   1.491       .  S
C37         C817   1.490       .  S
In40         O42   2.240       .  S
In40         O43   2.261       .  S
In40         O51   2.267       .  S
In40         O45   2.251       .  S
In40         O47   2.259       .  S
In40         O48   2.248       .  S
In40         O49   2.247       .  S
In40         O52   2.246       .  S
C41          O47   1.260       .  A
C41          O49   1.258       .  A
C41         C796   1.488       .  S
O42          C50   1.259       .  A
O43          C50   1.263       .  A
C44          O51   1.258       .  A
C44          O45   1.256       .  A
C44         C745   1.486       .  S
C46          O48   1.262       .  A
C46          O52   1.263       .  A
C46         C853   1.490       .  S
C50         C757   1.488       .  S
In53         O55   2.255       .  S
In53         O56   2.256       .  S
In53         O64   2.251       .  S
In53         O58   2.264       .  S
In53         O60   2.268       .  S
In53         O61   2.256       .  S
In53         O62   2.245       .  S
In53         O65   2.244       .  S
C54          O60   1.260       .  A
C54          O62   1.258       .  A
C54         C733   1.492       .  S
O55          C63   1.262       .  A
O56          C63   1.261       .  A
C57          O64   1.256       .  A
C57          O58   1.258       .  A
C57         C709   1.485       .  S
C59          O61   1.262       .  A
C59          O65   1.260       .  A
C59         C832   1.484       .  S
C63         C721   1.493       .  S
In66         O68   2.232       .  S
In66         O69   2.271       .  S
In66         O77   2.244       .  S
In66         O71   2.264       .  S
In66         O73   2.257       .  S
In66         O74   2.261       .  S
In66         O75   2.244       .  S
In66         O78   2.241       .  S
C67          O73   1.262       .  A
C67          O75   1.261       .  A
C67         C736   1.490       .  S
O68          C76   1.259       .  A
O69          C76   1.262       .  A
C70          O77   1.256       .  A
C70          O71   1.260       .  A
C70         C688   1.487       .  S
C72          O74   1.262       .  A
C72          O78   1.258       .  A
C72         C697   1.489       .  S
C76         C868   1.486       .  S
In79         O81   2.236       .  S
In79         O82   2.254       .  S
In79         O90   2.241       .  S
In79         O84   2.270       .  S
In79         O86   2.241       .  S
In79         O87   2.243       .  S
In79         O88   2.254       .  S
In79         O91   2.256       .  S
C80          O86   1.260       .  A
C80          O88   1.261       .  A
C80         C673   1.488       .  S
O81          C89   1.260       .  A
O82          C89   1.263       .  A
C83          O90   1.257       .  A
C83          O84   1.260       .  A
C83         C661   1.489       .  S
C85          O87   1.258       .  A
C85          O91   1.262       .  A
C85         C724   1.489       .  S
C89         C784   1.479       .  S
In92         O94   2.233       .  S
In92         O95   2.261       .  S
In92        O103   2.244       .  S
In92         O97   2.264       .  S
In92         O99   2.240       .  S
In92        O100   2.260       .  S
In92        O101   2.244       .  S
In92        O104   2.238       .  S
C93          O99   1.262       .  A
C93         O101   1.261       .  A
C93         C676   1.485       .  S
O94         C102   1.259       .  A
O95         C102   1.262       .  A
C96         O103   1.258       .  A
C96          O97   1.260       .  A
C96         C649   1.487       .  S
C98         O100   1.261       .  A
C98         O104   1.258       .  A
C98         C760   1.484       .  S
C102        C700   1.489       .  S
In105       O107   2.253       .  S
In105       O108   2.257       .  S
In105       O116   2.262       .  S
In105       O110   2.263       .  S
In105       O112   2.270       .  S
In105       O113   2.252       .  S
In105       O114   2.237       .  S
In105       O117   2.258       .  S
C106        O112   1.263       .  A
C106        O114   1.259       .  A
C106        C640   1.484       .  S
O107        C115   1.260       .  A
O108        C115   1.260       .  A
C109        O116   1.257       .  A
C109        O110   1.257       .  A
C109        C772   1.492       .  S
C111        O113   1.261       .  A
C111        O117   1.261       .  A
C111        C616   1.492       .  S
C115        C625   1.491       .  S
In118       O120   2.230       .  S
In118       O121   2.261       .  S
In118       O129   2.247       .  S
In118       O123   2.265       .  S
In118       O125   2.271       .  S
In118       O126   2.242       .  S
In118       O127   2.234       .  S
In118       O130   2.250       .  S
C119        O125   1.261       .  A
C119        O127   1.258       .  A
C119        C637   1.488       .  S
O120        C128   1.259       .  A
O121        C128   1.263       .  A
C122        O129   1.256       .  A
C122        O123   1.258       .  A
C122        C712   1.489       .  S
C124        O126   1.260       .  A
C124        O130   1.262       .  A
C124        C601   1.488       .  S
C128        C592   1.487       .  S
In131       O133   2.260       .  S
In131       O134   2.231       .  S
In131       O142   2.238       .  S
In131       O136   2.262       .  S
In131       O138   2.243       .  S
In131       O139   2.261       .  S
In131       O140   2.243       .  S
In131       O143   2.225       .  S
C132        O138   1.260       .  A
C132        O140   1.262       .  A
C132        C577   1.485       .  S
O133        C141   1.261       .  A
O134        C141   1.260       .  A
C135        O142   1.256       .  A
C135        O136   1.260       .  A
C135        C565   1.488       .  S
C137        O139   1.262       .  A
C137        O143   1.260       .  A
C137        C556   1.482       .  S
C141        C604   1.486       .  S
In144       O146   2.237       .  S
In144       O147   2.247       .  S
In144       O155   2.259       .  S
In144       O149   2.266       .  S
In144       O151   2.265       .  S
In144       O152   2.270       .  S
In144       O153   2.231       .  S
In144       O156   2.244       .  S
C145        O151   1.262       .  A
C145        O153   1.258       .  A
C145        C580   1.479       .  S
O146        C154   1.262       .  A
O147        C154   1.264       .  A
C148        O155   1.256       .  A
C148        O149   1.257       .  A
C148        C541   1.490       .  S
C150        O152   1.261       .  A
C150        O156   1.257       .  A
C150        C628   1.489       .  S
C154        C532   1.487       .  S
In157       O159   2.237       .  S
In157       O160   2.249       .  S
In157       O168   2.254       .  S
In157       O162   2.266       .  S
In157       O164   2.248       .  S
In157       O165   2.235       .  S
In157       O166   2.249       .  S
In157       O169   2.267       .  S
C158        O164   1.261       .  A
C158        O166   1.260       .  A
C158        C517   1.488       .  S
O159        C167   1.261       .  A
O160        C167   1.263       .  A
C161        O168   1.257       .  A
C161        O162   1.258       .  A
C161        C664   1.488       .  S
C163        O165   1.257       .  A
C163        O169   1.262       .  A
C163        C493   1.487       .  S
C167        C505   1.488       .  S
In170       O172   2.262       .  S
In170       O173   2.252       .  S
In170       O181   2.255       .  S
In170       O175   2.278       .  S
In170       O177   2.238       .  S
In170       O178   2.255       .  S
In170       O179   2.255       .  S
In170       O182   2.254       .  S
C171        O177   1.260       .  A
C171        O179   1.262       .  A
C171        C520   1.489       .  S
O172        C180   1.263       .  A
O173        C180   1.259       .  A
C174        O181   1.256       .  A
C174        O175   1.258       .  A
C174        C805   1.493       .  S
C176        O178   1.261       .  A
C176        O182   1.262       .  A
C176        C481   1.493       .  S
C180        C469   1.488       .  S
In183       O185   2.264       .  S
In183       O186   2.251       .  S
In183       O194   2.276       .  S
In183       O188   2.255       .  S
In183       O190   2.252       .  S
In183       O191   2.237       .  S
In183       O192   2.250       .  S
In183       O195   2.277       .  S
C184        O190   1.262       .  A
C184        O192   1.262       .  A
C184        C460   1.493       .  S
O185        C193   1.261       .  A
O186        C193   1.259       .  A
C187        O194   1.258       .  A
C187        O188   1.258       .  A
C187        C445   1.492       .  S
C189        O191   1.259       .  A
C189        O195   1.263       .  A
C189        C433   1.487       .  S
C193        C484   1.492       .  S
In196       O198   2.265       .  S
In196       O199   2.244       .  S
In196       O207   2.264       .  S
In196       O201   2.260       .  S
In196       O203   2.249       .  S
In196       O204   2.229       .  S
In196       O205   2.249       .  S
In196       O208   2.252       .  S
C197        O203   1.262       .  A
C197        O205   1.263       .  A
C197        C457   1.492       .  S
O198        C206   1.262       .  A
O199        C206   1.257       .  A
C200        O207   1.257       .  A
C200        O201   1.259       .  A
C200        C568   1.493       .  S
C202        O204   1.261       .  A
C202        O208   1.262       .  A
C202        C508   1.485       .  S
C206        C421   1.485       .  S
In209       O211   2.247       .  S
In209       O212   2.244       .  S
In209       O220   2.254       .  S
In209       O214   2.263       .  S
In209       O216   2.258       .  S
In209       O217   2.241       .  S
In209       O218   2.234       .  S
In209       O221   2.263       .  S
C210        O216   1.264       .  A
C210        O218   1.259       .  A
C210        C409   1.488       .  S
O211        C219   1.261       .  A
O212        C219   1.260       .  A
C213        O220   1.258       .  A
C213        O214   1.260       .  A
C213        C652   1.490       .  S
C215        O217   1.258       .  A
C215        O221   1.262       .  A
C215        C424   1.487       .  S
C219        C400   1.486       .  S
In222       O224   2.272       .  S
In222       O225   2.242       .  S
In222       O233   2.269       .  S
In222       O227   2.251       .  S
In222       O229   2.265       .  S
In222       O230   2.254       .  S
In222       O231   2.243       .  S
In222       O234   2.244       .  S
C223        O229   1.262       .  A
C223        O231   1.260       .  A
C223        C412   1.489       .  S
O224        C232   1.262       .  A
O225        C232   1.260       .  A
C226        O233   1.260       .  A
C226        O227   1.258       .  A
C226        C841   1.493       .  S
C228        O230   1.261       .  A
C228        O234   1.260       .  A
C228        C385   1.487       .  S
C232        C436   1.493       .  S
In235       O237   2.242       .  S
In235       O238   2.247       .  S
In235       O246   2.248       .  S
In235       O240   2.267       .  S
In235       O242   2.237       .  S
In235       O243   2.240       .  S
In235       O244   2.243       .  S
In235       O247   2.258       .  S
C236        O242   1.261       .  A
C236        O244   1.259       .  A
C236        C373   1.483       .  S
O237        C245   1.261       .  A
O238        C245   1.262       .  A
C239        O246   1.256       .  A
C239        O240   1.258       .  A
C239        C361   1.491       .  S
C241        O243   1.259       .  A
C241        O247   1.264       .  A
C241        C472   1.488       .  S
C245        C388   1.486       .  S
In248       O250   2.254       .  S
In248       O251   2.240       .  S
In248       O259   2.252       .  S
In248       O253   2.260       .  S
In248       O255   2.230       .  S
In248       O256   2.248       .  S
In248       O257   2.251       .  S
In248       O260   2.245       .  S
C249        O255   1.260       .  A
C249        O257   1.260       .  A
C249        C376   1.484       .  S
O250        C258   1.263       .  A
O251        C258   1.260       .  A
C252        O259   1.256       .  A
C252        O253   1.259       .  A
C252        C544   1.489       .  S
C254        O256   1.262       .  A
C254        O260   1.261       .  A
C254        C397   1.485       .  S
C258        C496   1.490       .  S
In261       O263   2.245       .  S
In261       O264   2.248       .  S
In261       O272   2.262       .  S
In261       O266   2.259       .  S
In261       O268   2.258       .  S
In261       O269   2.256       .  S
In261       O270   2.246       .  S
In261       O273   2.246       .  S
C262        O268   1.261       .  A
C262        O270   1.259       .  A
C262        C349   1.488       .  S
O263        C271   1.261       .  A
O264        C271   1.262       .  A
C265        O272   1.258       .  A
C265        O266   1.256       .  A
C265        C748   1.488       .  S
C267        O269   1.262       .  A
C267        O273   1.260       .  A
C267        C529   1.483       .  S
C271        C337   1.485       .  S
In274       O276   2.215       .  S
In274       O277   2.258       .  S
In274       O285   2.254       .  S
In274       O279   2.254       .  S
In274       O281   2.250       .  S
In274       O282   2.230       .  S
In274       O283   2.244       .  S
In274       O286   2.260       .  S
C275        O281   1.261       .  A
C275        O283   1.263       .  A
C275        C352   1.490       .  S
O276        C284   1.258       .  A
O277        C284   1.264       .  A
C278        O285   1.257       .  A
C278        O279   1.259       .  A
C278        C685   1.487       .  S
C280        O282   1.258       .  A
C280        O286   1.262       .  A
C280        C328   1.484       .  S
C284        C553   1.479       .  S
In287       O289   2.264       .  S
In287       O290   2.245       .  S
In287       O298   2.269       .  S
In287       O292   2.251       .  S
In287       O294   2.260       .  S
In287       O295   2.244       .  S
In287       O296   2.244       .  S
In287       O299   2.254       .  S
C288        O294   1.261       .  A
C288        O296   1.258       .  A
C288        C313   1.487       .  S
O289        C297   1.263       .  A
O290        C297   1.260       .  A
C291        O298   1.258       .  A
C291        O292   1.256       .  A
C291        C364   1.491       .  S
C293        O295   1.260       .  A
C293        O299   1.261       .  A
C293        C340   1.484       .  S
C297        C613   1.488       .  S
In300       O302   2.247       .  S
In300       O303   2.250       .  S
In300       O311   2.271       .  S
In300       O305   2.240       .  S
In300       O307   2.246       .  S
In300       O308   2.262       .  S
In300       O309   2.234       .  S
In300       O312   2.231       .  S
C301        O307   1.263       .  A
C301        O309   1.262       .  A
C301        C316   1.487       .  S
O302        C310   1.259       .  A
O303        C310   1.259       .  A
C304        O311   1.259       .  A
C304        O305   1.257       .  A
C304        C448   1.488       .  S
C306        O308   1.262       .  A
C306        O312   1.259       .  A
C306        C589   1.485       .  S
C310        C325   1.485       .  S
C313        C314   1.406       .  A
C313        C318   1.415       .  A
C314        C315   1.402   1_455  A
C314        H319   1.084       .  S
C315        C316   1.415       .  A
C315        C322   1.444       .  S
C316        C317   1.405       .  A
C317        C318   1.400   1_655  A
C317        H320   1.085       .  S
C318        C321   1.444       .  S
C321        N323   1.157       .  T
C322        N324   1.157       .  T
C325        C326   1.404       .  A
C325        C330   1.415       .  A
C326        C327   1.400       .  A
C326        H331   1.085       .  S
C327        C328   1.415       .  A
C327        C334   1.445       .  S
C328        C329   1.404       .  A
C329        C330   1.402       .  A
C329        H332   1.085       .  S
C330        C333   1.444       .  S
C333        N335   1.157       .  T
C334        N336   1.157       .  T
C337        C338   1.404       .  A
C337        C342   1.415       .  A
C338        C339   1.400       .  A
C338        H343   1.085       .  S
C339        C340   1.414       .  A
C339        C346   1.445       .  S
C340        C341   1.405       .  A
C341        C342   1.403       .  A
C341        H344   1.085       .  S
C342        C345   1.444       .  S
C345        N347   1.157       .  T
C346        N348   1.157       .  T
C349        C350   1.405       .  A
C349        C354   1.414       .  A
C350        C351   1.403   1_455  A
C350        H355   1.085       .  S
C351        C352   1.417       .  A
C351        C358   1.444       .  S
C352        C353   1.405       .  A
C353        C354   1.401   1_655  A
C353        H356   1.085       .  S
C354        C357   1.444       .  S
C357        N359   1.157       .  T
C358        N360   1.157       .  T
C361        C362   1.405       .  A
C361        C366   1.416       .  A
C362        C363   1.403       .  A
C362        H367   1.085       .  S
C363        C364   1.416       .  A
C363        C370   1.444       .  S
C364        C365   1.405       .  A
C365        C366   1.403       .  A
C365        H368   1.085       .  S
C366        C369   1.444       .  S
C369        N371   1.157       .  T
C370        N372   1.157       .  T
C373        C374   1.404       .  A
C373        C378   1.415       .  A
C374        C375   1.397   1_545  A
C374        H379   1.084       .  S
C375        C376   1.414       .  A
C375        C382   1.444       .  S
C376        C377   1.406       .  A
C377        C378   1.402   1_565  A
C377        H380   1.084       .  S
C378        C381   1.445       .  S
C381        N383   1.158       .  T
C382        N384   1.157       .  T
C385        C386   1.406       .  A
C385        C390   1.415       .  A
C386        C387   1.402       .  A
C386        H391   1.085       .  S
C387        C388   1.415       .  A
C387        C394   1.445       .  S
C388        C389   1.405       .  A
C389        C390   1.401       .  A
C389        H392   1.085       .  S
C390        C393   1.444       .  S
C393        N395   1.157       .  T
C394        N396   1.157       .  T
C397        C398   1.405       .  A
C397        C402   1.414       .  A
C398        C399   1.401       .  A
C398        H403   1.085       .  S
C399        C400   1.415       .  A
C399        C406   1.444       .  S
C400        C401   1.405       .  A
C401        C402   1.401       .  A
C401        H404   1.085       .  S
C402        C405   1.444       .  S
C405        N407   1.157       .  T
C406        N408   1.157       .  T
C409        C410   1.406       .  A
C409        C414   1.417       .  A
C410        C411   1.404   1_565  A
C410        H415   1.085       .  S
C411        C412   1.414       .  A
C411        C418   1.443       .  S
C412        C413   1.405       .  A
C413        C414   1.400   1_545  A
C413        H416   1.085       .  S
C414        C417   1.445       .  S
C417        N419   1.158       .  T
C418        N420   1.157       .  T
C421        C422   1.404       .  A
C421        C426   1.415       .  A
C422        C423   1.403       .  A
C422        H427   1.085       .  S
C423        C424   1.414       .  A
C423        C430   1.443       .  S
C424        C425   1.405       .  A
C425        C426   1.401       .  A
C425        H428   1.085       .  S
C426        C429   1.445       .  S
C429        N431   1.158       .  T
C430        N432   1.157       .  T
C433        C434   1.405       .  A
C433        C438   1.412       .  A
C434        C435   1.407       .  A
C434        H439   1.085       .  S
C435        C436   1.417       .  A
C435        C442   1.443       .  S
C436        C437   1.407       .  A
C437        C438   1.400       .  A
C437        H440   1.085       .  S
C438        C441   1.445       .  S
C441        N443   1.157       .  T
C442        N444   1.157       .  T
C445        C446   1.405       .  A
C445        C450   1.417       .  A
C446        C447   1.400       .  A
C446        H451   1.085       .  S
C447        C448   1.414       .  A
C447        C454   1.445       .  S
C448        C449   1.406       .  A
C449        C450   1.406       .  A
C449        H452   1.085       .  S
C450        C453   1.444       .  S
C453        N455   1.157       .  T
C454        N456   1.157       .  T
C457        C458   1.406       .  A
C457        C462   1.416       .  A
C458        C459   1.402   1_565  A
C458        H463   1.085       .  S
C459        C460   1.416       .  A
C459        C466   1.444       .  S
C460        C461   1.407       .  A
C461        C462   1.404   1_545  A
C461        H464   1.085       .  S
C462        C465   1.444       .  S
C465        N467   1.157       .  T
C466        N468   1.157       .  T
C469        C470   1.407       .  A
C469        C474   1.413       .  A
C470        C471   1.404       .  A
C470        H475   1.085       .  S
C471        C472   1.417       .  A
C471        C478   1.446       .  S
C472        C473   1.404       .  A
C473        C474   1.402       .  A
C473        H476   1.085       .  S
C474        C477   1.443       .  S
C477        N479   1.157       .  T
C478        N480   1.158       .  T
C481        C482   1.407       .  A
C481        C486   1.416       .  A
C482        C483   1.404       .  A
C482        H487   1.085       .  S
C483        C484   1.415       .  A
C483        C490   1.444       .  S
C484        C485   1.407       .  A
C485        C486   1.403       .  A
C485        H488   1.085       .  S
C486        C489   1.444       .  S
C489        N491   1.157       .  T
C490        N492   1.157       .  T
C493        C494   1.405       .  A
C493        C498   1.415       .  A
C494        C495   1.403       .  A
C494        H499   1.085       .  S
C495        C496   1.415       .  A
C495        C502   1.443       .  S
C496        C497   1.406       .  A
C497        C498   1.400       .  A
C497        H500   1.085       .  S
C498        C501   1.445       .  S
C501        N503   1.158       .  T
C502        N504   1.157       .  T
C505        C506   1.407       .  A
C505        C510   1.416       .  A
C506        C507   1.403       .  A
C506        H511   1.084       .  S
C507        C508   1.414       .  A
C507        C514   1.444       .  S
C508        C509   1.404       .  A
C509        C510   1.397       .  A
C509        H512   1.085       .  S
C510        C513   1.444       .  S
C513        N515   1.157       .  T
C514        N516   1.157       .  T
C517        C518   1.405       .  A
C517        C522   1.415       .  A
C518        C519   1.401   1_565  A
C518        H523   1.084       .  S
C519        C520   1.415       .  A
C519        C526   1.444       .  S
C520        C521   1.406       .  A
C521        C522   1.403   1_545  A
C521        H524   1.085       .  S
C522        C525   1.444       .  S
C525        N527   1.157       .  T
C526        N528   1.157       .  T
C529        C530   1.404       .  A
C529        C534   1.413       .  A
C530        C531   1.402       .  A
C530        H535   1.085       .  S
C531        C532   1.415       .  A
C531        C538   1.444       .  S
C532        C533   1.406       .  A
C533        C534   1.400       .  A
C533        H536   1.085       .  S
C534        C537   1.445       .  S
C537        N539   1.158       .  T
C538        N540   1.157       .  T
C541        C542   1.406       .  A
C541        C546   1.416       .  A
C542        C543   1.402       .  A
C542        H547   1.085       .  S
C543        C544   1.416       .  A
C543        C550   1.445       .  S
C544        C545   1.405       .  A
C545        C546   1.402       .  A
C545        H548   1.085       .  S
C546        C549   1.443       .  S
C549        N551   1.157       .  T
C550        N552   1.158       .  T
C553        C554   1.404       .  A
C553        C558   1.413       .  A
C554        C555   1.403       .  A
C554        H559   1.085       .  S
C555        C556   1.415       .  A
C555        C562   1.443       .  S
C556        C557   1.404       .  A
C557        C558   1.395       .  A
C557        H560   1.085       .  S
C558        C561   1.446       .  S
C561        N563   1.158       .  T
C562        N564   1.157       .  T
C565        C566   1.404       .  A
C565        C570   1.417       .  A
C566        C567   1.401       .  A
C566        H571   1.085       .  S
C567        C568   1.415       .  A
C567        C574   1.443       .  S
C568        C569   1.408       .  A
C569        C570   1.403       .  A
C569        H572   1.084       .  S
C570        C573   1.446       .  S
C573        N575   1.158       .  T
C574        N576   1.157       .  T
C577        C578   1.405       .  A
C577        C582   1.416       .  A
C578        C579   1.398   1_655  A
C578        H583   1.085       .  S
C579        C580   1.411       .  A
C579        C586   1.445       .  S
C580        C581   1.403       .  A
C581        C582   1.403   1_455  A
C581        H584   1.085       .  S
C582        C585   1.444       .  S
C585        N587   1.157       .  T
C586        N588   1.157       .  T
C589        C590   1.404       .  A
C589        C594   1.414       .  A
C590        C591   1.397       .  A
C590        H595   1.085       .  S
C591        C592   1.416       .  A
C591        C598   1.445       .  S
C592        C593   1.406       .  A
C593        C594   1.404       .  A
C593        H596   1.085       .  S
C594        C597   1.444       .  S
C597        N599   1.157       .  T
C598        N600   1.157       .  T
C601        C602   1.407       .  A
C601        C606   1.415       .  A
C602        C603   1.404       .  A
C602        H607   1.085       .  S
C603        C604   1.415       .  A
C603        C610   1.444       .  S
C604        C605   1.404       .  A
C605        C606   1.397       .  A
C605        H608   1.085       .  S
C606        C609   1.444       .  S
C609        N611   1.157       .  T
C610        N612   1.157       .  T
C613        C614   1.405       .  A
C613        C618   1.414       .  A
C614        C615   1.405       .  A
C614        H619   1.085       .  S
C615        C616   1.417       .  A
C615        C622   1.444       .  S
C616        C617   1.406       .  A
C617        C618   1.401       .  A
C617        H620   1.085       .  S
C618        C621   1.444       .  S
C621        N623   1.157       .  T
C622        N624   1.157       .  T
C625        C626   1.406       .  A
C625        C630   1.416       .  A
C626        C627   1.401       .  A
C626        H631   1.084       .  S
C627        C628   1.415       .  A
C627        C634   1.445       .  S
C628        C629   1.405       .  A
C629        C630   1.404       .  A
C629        H632   1.084       .  S
C630        C633   1.444       .  S
C633        N635   1.157       .  T
C634        N636   1.157       .  T
C637        C638   1.405       .  A
C637        C642   1.416       .  A
C638        C639   1.398   1_655  A
C638        H643   1.085       .  S
C639        C640   1.411       .  A
C639        C646   1.444       .  S
C640        C641   1.405       .  A
C641        C642   1.406   1_455  A
C641        H644   1.084       .  S
C642        C645   1.444       .  S
C645        N647   1.157       .  T
C646        N648   1.157       .  T
C649        C650   1.405       .  A
C649        C654   1.414       .  A
C650        C651   1.401       .  A
C650        H655   1.085       .  S
C651        C652   1.416       .  A
C651        C658   1.444       .  S
C652        C653   1.407       .  A
C653        C654   1.404       .  A
C653        H656   1.085       .  S
C654        C657   1.444       .  S
C657        N659   1.157       .  T
C658        N660   1.157       .  T
C661        C662   1.406       .  A
C661        C666   1.416       .  A
C662        C663   1.404       .  A
C662        H667   1.085       .  S
C663        C664   1.414       .  A
C663        C670   1.444       .  S
C664        C665   1.404       .  A
C665        C666   1.400       .  A
C665        H668   1.085       .  S
C666        C669   1.445       .  S
C669        N671   1.157       .  T
C670        N672   1.157       .  T
C673        C674   1.407       .  A
C673        C678   1.415       .  A
C674        C675   1.403   1_556  A
C674        H679   1.085       .  S
C675        C676   1.413       .  A
C675        C682   1.444       .  S
C676        C677   1.404       .  A
C677        C678   1.399   1_554  A
C677        H680   1.085       .  S
C678        C681   1.444       .  S
C681        N683   1.157       .  T
C682        N684   1.157       .  T
C685        C686   1.405       .  A
C685        C690   1.414       .  A
C686        C687   1.402       .  A
C686        H691   1.085       .  S
C687        C688   1.416       .  A
C687        C694   1.445       .  S
C688        C689   1.405       .  A
C689        C690   1.402       .  A
C689        H692   1.085       .  S
C690        C693   1.444       .  S
C693        N695   1.157       .  T
C694        N696   1.158       .  T
C697        C698   1.407       .  A
C697        C702   1.416       .  A
C698        C699   1.404       .  A
C698        H703   1.084       .  S
C699        C700   1.415       .  A
C699        C706   1.444       .  S
C700        C701   1.405       .  A
C701        C702   1.398       .  A
C701        H704   1.085       .  S
C702        C705   1.445       .  S
C705        N707   1.157       .  T
C706        N708   1.157       .  T
C709        C710   1.405       .  A
C709        C714   1.413       .  A
C710        C711   1.403       .  A
C710        H715   1.085       .  S
C711        C712   1.416       .  A
C711        C718   1.444       .  S
C712        C713   1.406       .  A
C713        C714   1.400       .  A
C713        H716   1.085       .  S
C714        C717   1.445       .  S
C717        N719   1.157       .  T
C718        N720   1.157       .  T
C721        C722   1.407       .  A
C721        C726   1.416       .  A
C722        C723   1.403       .  A
C722        H727   1.085       .  S
C723        C724   1.416       .  A
C723        C730   1.445       .  S
C724        C725   1.404       .  A
C725        C726   1.402       .  A
C725        H728   1.085       .  S
C726        C729   1.443       .  S
C729        N731   1.157       .  T
C730        N732   1.158       .  T
C733        C734   1.408       .  A
C733        C738   1.416       .  A
C734        C735   1.406   1_556  A
C734        H739   1.085       .  S
C735        C736   1.415       .  A
C735        C742   1.444       .  S
C736        C737   1.405       .  A
C737        C738   1.400   1_554  A
C737        H740   1.085       .  S
C738        C741   1.444       .  S
C741        N743   1.157       .  T
C742        N744   1.157       .  T
C745        C746   1.405       .  A
C745        C750   1.414       .  A
C746        C747   1.403       .  A
C746        H751   1.085       .  S
C747        C748   1.415       .  A
C747        C754   1.444       .  S
C748        C749   1.405       .  A
C749        C750   1.402       .  A
C749        H752   1.085       .  S
C750        C753   1.445       .  S
C753        N755   1.157       .  T
C754        N756   1.157       .  T
C757        C758   1.407       .  A
C757        C762   1.416       .  A
C758        C759   1.403       .  A
C758        H763   1.084       .  S
C759        C760   1.413       .  A
C759        C766   1.444       .  S
C760        C761   1.404       .  A
C761        C762   1.399       .  A
C761        H764   1.085       .  S
C762        C765   1.445       .  S
C765        N767   1.158       .  T
C766        N768   1.157       .  T
C769        C770   1.405       .  A
C769        C774   1.415       .  A
C770        C771   1.403       .  A
C770        H775   1.085       .  S
C771        C772   1.416       .  A
C771        C778   1.444       .  S
C772        C773   1.406       .  A
C773        C774   1.403       .  A
C773        H776   1.085       .  S
C774        C777   1.444       .  S
C777        N779   1.157       .  T
C778        N780   1.157       .  T
C781        C782   1.407       .  A
C781        C786   1.419       .  A
C782        C783   1.404       .  A
C782        H787   1.084       .  S
C783        C784   1.411       .  A
C783        C790   1.444       .  S
C784        C785   1.401       .  A
C785        C786   1.400       .  A
C785        H788   1.085       .  S
C786        C789   1.445       .  S
C789        N791   1.158       .  T
C790        N792   1.157       .  T
C793        C794   1.406       .  A
C793        C798   1.414       .  A
C794        C795   1.403   1_556  A
C794        H799   1.084       .  S
C795        C796   1.415       .  A
C795        C802   1.444       .  S
C796        C797   1.406       .  A
C797        C798   1.401   1_554  A
C797        H800   1.085       .  S
C798        C801   1.444       .  S
C801        N803   1.157       .  T
C802        N804   1.157       .  T
C805        C806   1.406       .  A
C805        C810   1.416       .  A
C806        C807   1.401       .  A
C806        H811   1.085       .  S
C807        C808   1.414       .  A
C807        C814   1.444       .  S
C808        C809   1.406       .  A
C809        C810   1.407       .  A
C809        H812   1.085       .  S
C810        C813   1.444       .  S
C813        N815   1.157       .  T
C814        N816   1.157       .  T
C817        C818   1.405       .  A
C817        C822   1.416       .  A
C818        C819   1.398       .  A
C818        H823   1.084       .  S
C819        C820   1.415       .  A
C819        C826   1.445       .  S
C820        C821   1.406       .  A
C821        C822   1.406       .  A
C821        H824   1.084       .  S
C822        C825   1.444       .  S
C825        N827   1.157       .  T
C826        N828   1.157       .  T
C829        C830   1.406       .  A
C829        C834   1.416       .  A
C830        C831   1.401       .  A
C830        H835   1.085       .  S
C831        C832   1.412       .  A
C831        C838   1.444       .  S
C832        C833   1.405       .  A
C833        C834   1.403       .  A
C833        H836   1.085       .  S
C834        C837   1.444       .  S
C837        N839   1.158       .  T
C838        N840   1.157       .  T
C841        C842   1.406       .  A
C841        C846   1.415       .  A
C842        C843   1.402       .  A
C842        H847   1.084       .  S
C843        C844   1.415       .  A
C843        C850   1.444       .  S
C844        C845   1.407       .  A
C845        C846   1.404       .  A
C845        H848   1.084       .  S
C846        C849   1.444       .  S
C849        N851   1.157       .  T
C850        N852   1.157       .  T
C853        C854   1.406       .  A
C853        C858   1.416       .  A
C854        C855   1.402       .  A
C854        H859   1.084       .  S
C855        C856   1.415       .  A
C855        C862   1.444       .  S
C856        C857   1.407       .  A
C857        C858   1.403       .  A
C857        H860   1.084       .  S
C858        C861   1.445       .  S
C861        N863   1.158       .  T
C862        N864   1.157       .  T
C865        C866   1.405       .  A
C865        C870   1.414       .  A
C866        C867   1.405       .  A
C866        H871   1.084       .  S
C867        C868   1.416       .  A
C867        C874   1.444       .  S
C868        C869   1.404       .  A
C869        C870   1.397       .  A
C869        H872   1.085       .  S
C870        C873   1.445       .  S
C873        N875   1.157       .  T
C874        N876   1.157       .  T
C877        C878   1.406       .  A
C877        C882   1.414       .  A
C878        C879   1.404   1_554  A
C878        H883   1.085       .  S
C879        C880   1.416       .  A
C879        C886   1.444       .  S
C880        C881   1.406       .  A
C881        C882   1.400   1_556  A
C881        H884   1.085       .  S
C882        C885   1.445       .  S
C885        N887   1.157       .  T
C886        N888   1.157       .  T
