geometry optimzed in LAMMPS
_audit_creation_date              2020-11-30 
_audit_creation_method            'lammps2cif' 
_symmetry_space_group_name_H-M    'P1' 
_symmetry_Int_Tables_number       1 
_symmetry_cell_setting            triclinic 
loop_ 
_symmetry_equiv_pos_as_xyz 
  x,y,z 
_cell_length_a                    112.55075328 
_cell_length_b                    112.60164191557831 
_cell_length_c                    112.56704401340184 
_cell_angle_alpha                 90.02389817148203 
_cell_angle_beta                  89.97763354115052 
_cell_angle_gamma                 90.0167741280467 
loop_ 
_atom_site_label 
_atom_site_type_symbol 
_atom_site_fract_x 
_atom_site_fract_y 
_atom_site_fract_z 
_atom_site_charge 
N1          N  0.66358941  0.83115710  0.84148967    -0.26700
N2          N  0.66326688  0.82054711  0.83648073    -0.34600
C3          C  0.66291932  0.82189015  0.82461038     0.01600
C4          C  0.66307580  0.83392603  0.82205334     0.07700
C5          C  0.66351026  0.83953670  0.83297480    -0.05400
H6          H  0.66286230  0.81465270  0.81829385     0.08300
H7          H  0.66380246  0.84899706  0.83461719     0.09500
Cu8        Cu  0.66413461  0.80481737  0.84613334     0.44200
Cu9        Cu  0.66416652  0.83363890  0.85966054     0.42000
Cu10       Cu  0.66720770  0.80738112  0.87825617     0.43900
N11         N  0.66711961  0.79047455  0.85738687    -0.34100
N12         N  0.66865173  0.79138690  0.86901159    -0.28400
C13         C  0.67115994  0.78055176  0.87343915    -0.04500
C14         C  0.67109073  0.77245600  0.86416940     0.07800
C15         C  0.66848866  0.77905794  0.85416034     0.01600
H16         H  0.67291701  0.77870046  0.88270529     0.09200
H17         H  0.66791074  0.77581785  0.84509528     0.08300
N18         N  0.66480219  0.82452752  0.88485144    -0.35500
N19         N  0.66375355  0.83400927  0.87800217    -0.27700
C20         C  0.66223114  0.84366585  0.88484857    -0.03000
C21         C  0.66230250  0.84014764  0.89660547     0.05600
C22         C  0.66396006  0.82794651  0.89628573     0.03700
H23         H  0.66124018  0.85261488  0.88149899     0.08800
H24         H  0.66446765  0.82199277  0.90380753     0.07700
N25         N  0.69708589  0.86058855  0.67753314    -0.26700
N26         N  0.70134436  0.85802389  0.68817178    -0.34600
C27         C  0.71317504  0.85655415  0.68740005     0.01600
C28         C  0.71658731  0.85828107  0.67571513     0.07700
C29         C  0.70614251  0.86084106  0.66969932    -0.05400
H30         H  0.71890629  0.85456636  0.69484428     0.08300
H31         H  0.70519647  0.86271971  0.66032744     0.09500
Cu32       Cu  0.69104606  0.85710153  0.70343540     0.44200
Cu33       Cu  0.67909600  0.86359774  0.67436769     0.42000
Cu34       Cu  0.66000884  0.86410166  0.70078825     0.43900
N35         N  0.67957251  0.85780478  0.71784777    -0.34100
N36         N  0.66820426  0.86060464  0.71696688    -0.28400
C37         C  0.66325404  0.86023557  0.72785891    -0.04500
C38         C  0.67193607  0.85700868  0.73596994     0.07800
C39         C  0.68216409  0.85555776  0.72928895     0.01600
H40         H  0.65396874  0.86188155  0.72969731     0.09200
H41         H  0.69084104  0.85297406  0.73249688     0.08300
N42         N  0.65383492  0.86572382  0.68345201    -0.35500
N43         N  0.66068652  0.86550347  0.67389499    -0.27700
C44         C  0.65376388  0.86607162  0.66415652    -0.03000
C45         C  0.64200453  0.86663398  0.66774446     0.05600
C46         C  0.64240617  0.86643013  0.68003244     0.03700
H47         H  0.65702799  0.86572177  0.65512402     0.08800
H48         H  0.63491604  0.86654759  0.68605517     0.07700
N49         N  0.85985335  0.63599877  0.83807033    -0.26700
N50         N  0.85525406  0.63774408  0.82742061    -0.34600
C51         C  0.84345001  0.63919905  0.82845728     0.01600
C52         C  0.84044651  0.63840801  0.84036336     0.07700
C53         C  0.85109487  0.63637122  0.84619807    -0.05400
H54         H  0.83749615  0.64073607  0.82107820     0.08300
H55         H  0.85242028  0.63540875  0.85566210     0.09500
Cu56       Cu  0.86531376  0.63862746  0.81207062     0.44200
Cu57       Cu  0.87788192  0.63355625  0.84095793     0.42000
Cu58       Cu  0.89732182  0.63637351  0.81514167     0.43900
N59         N  0.87703356  0.64022512  0.79801129    -0.34100
N60         N  0.88871521  0.63937274  0.79897160    -0.28400
C61         C  0.89360411  0.64123635  0.78819160    -0.04500
C62         C  0.88453782  0.64343149  0.78014913     0.07800
C63         C  0.87418188  0.64270032  0.78669386     0.01600
H64         H  0.90304393  0.64133289  0.78640694     0.09200
H65         H  0.86522392  0.64406861  0.78350147     0.08300
N66         N  0.90336664  0.63367910  0.83248900    -0.35500
N67         N  0.89626333  0.63254835  0.84178834    -0.27700
C68         C  0.90288588  0.63113300  0.85163568    -0.03000
C69         C  0.91475784  0.63141345  0.84844004     0.05600
C70         C  0.91471665  0.63302914  0.83622243     0.03700
H71         H  0.89930673  0.63005670  0.86048942     0.08800
H72         H  0.92238735  0.63387623  0.83049651     0.07700
N73         N  0.69554596  0.66601244  0.86672345    -0.26700
N74         N  0.70623996  0.67053131  0.86487231    -0.34600
C75         C  0.70533752  0.68234934  0.86349880     0.01600
C76         C  0.69353715  0.68547196  0.86462398     0.07700
C77         C  0.68754336  0.67492640  0.86670254    -0.05400
H78         H  0.71277052  0.68827761  0.86212047     0.08300
H79         H  0.67811550  0.67383705  0.86819785     0.09500
Cu80       Cu  0.72183358  0.66080438  0.86520737     0.44200
Cu81       Cu  0.69258514  0.64791714  0.86947084     0.42000
Cu82       Cu  0.71960202  0.62987075  0.87180474     0.43900
N83         N  0.73649720  0.64984437  0.86680222    -0.34100
N84         N  0.73571012  0.63837924  0.86916418    -0.28400
C85         C  0.74666349  0.63359622  0.86891362    -0.04500
C86         C  0.75470474  0.64254102  0.86636828     0.07800
C87         C  0.74796317  0.65271257  0.86508424     0.01600
H88         H  0.74858902  0.62426349  0.87011643     0.09200
H89         H  0.75110481  0.66143626  0.86258010     0.08300
N90         N  0.70250171  0.62319751  0.87325878    -0.35500
N91         N  0.69268573  0.62959372  0.87230473    -0.27700
C92         C  0.68323499  0.62231623  0.87334714    -0.03000
C93         C  0.68731869  0.61081950  0.87502247     0.05600
C94         C  0.69956675  0.61175493  0.87494514     0.03700
H95         H  0.67407220  0.62515118  0.87273849     0.08800
H96         H  0.70591124  0.60461048  0.87596146     0.07700
N97         N  0.86067220  0.83330956  0.63895184    -0.26700
N98         N  0.85021574  0.82833815  0.64089586    -0.34600
C99         C  0.85169268  0.81657432  0.64218529     0.01600
C100        C  0.86365734  0.81401606  0.64098517     0.07700
C101        C  0.86910958  0.82483925  0.63895863    -0.05400
H102        H  0.84458735  0.81033796  0.64388963     0.08300
H103        H  0.87846738  0.82642950  0.63746873     0.09500
Cu104      Cu  0.83443229  0.83776715  0.64180622     0.44200
Cu105      Cu  0.86278795  0.85136481  0.63636939     0.42000
Cu106      Cu  0.83595156  0.86956013  0.63712367     0.43900
N107        N  0.81991169  0.84898463  0.64329090    -0.34100
N108        N  0.82041130  0.86062158  0.64175958    -0.28400
C109        C  0.80963655  0.86529001  0.64410452    -0.04500
C110        C  0.80202680  0.85611732  0.64715814     0.07800
C111        C  0.80882755  0.84592626  0.64653014     0.01600
H112        H  0.80753244  0.87465398  0.64374296     0.09200
H113        H  0.80600202  0.83697815  0.64858116     0.08300
N114        N  0.85298825  0.87624655  0.63429464    -0.35500
N115        N  0.86268391  0.86961479  0.63428322    -0.27700
C116        C  0.87225513  0.87664686  0.63306954    -0.03000
C117        C  0.86846165  0.88829999  0.63220817     0.05600
C118        C  0.85617352  0.88769676  0.63299023     0.03700
H119        H  0.88133880  0.87351098  0.63312124     0.08800
H120        H  0.85000586  0.89505992  0.63282343     0.07700
N121        N  0.88731999  0.66937841  0.67415713    -0.26700
N122        N  0.88716827  0.68023430  0.67862291    -0.34600
C123        C  0.88727513  0.67962233  0.69052434     0.01600
C124        C  0.88750520  0.66780814  0.69376721     0.07700
C125        C  0.88748393  0.66151666  0.68317978    -0.05400
H126        H  0.88718211  0.68722999  0.69638808     0.08300
H127        H  0.88771708  0.65197206  0.68212102     0.09500
Cu128      Cu  0.88693237  0.69551303  0.66857196     0.44200
Cu129      Cu  0.88757378  0.66611973  0.65596041     0.42000
Cu130      Cu  0.88791861  0.69272336  0.63694626     0.43900
N131        N  0.88680417  0.70991390  0.65729793    -0.34100
N132        N  0.88724342  0.70901335  0.64560701    -0.28400
C133        C  0.88667836  0.71998003  0.64087419    -0.04500
C134        C  0.88580093  0.72811641  0.65007788     0.07800
C135        C  0.88592750  0.72140692  0.66035062     0.01600
H136        H  0.88655238  0.72186573  0.63145765     0.09200
H137        H  0.88523792  0.72462026  0.66937737     0.08300
N138        N  0.88815752  0.67536308  0.63065136    -0.35500
N139        N  0.88810884  0.66578921  0.63747729    -0.27700
C140        C  0.88872031  0.65608135  0.63052732    -0.03000
C141        C  0.88912097  0.65970829  0.61878951     0.05600
C142        C  0.88873522  0.67197511  0.61920183     0.03700
H143        H  0.88901006  0.64704800  0.63378387     0.08800
H144        H  0.88916190  0.67800881  0.61173822     0.07700
N145        N  0.86331474  0.16666812  0.63473808    -0.26700
N146        N  0.85237408  0.17090028  0.63415369    -0.34600
C147        C  0.85285232  0.18274568  0.63283742     0.01600
C148        C  0.86465357  0.18615232  0.63256927     0.07700
C149        C  0.87105499  0.17572918  0.63379395    -0.05400
H150        H  0.84516912  0.18849410  0.63244908     0.08300
H151        H  0.88061331  0.17480449  0.63410006     0.09500
Cu152      Cu  0.83718396  0.16066970  0.63596699     0.44200
Cu153      Cu  0.86718398  0.14882260  0.63705092     0.42000
Cu154      Cu  0.84139364  0.12942904  0.64035506     0.43900
N155        N  0.82334672  0.14914864  0.63978659    -0.34100
N156        N  0.82484523  0.13765783  0.64163487    -0.28400
C157        C  0.81428101  0.13279624  0.64450125    -0.04500
C158        C  0.80572639  0.14167099  0.64440408     0.07800
C159        C  0.81183082  0.15190828  0.64137519     0.01600
H160        H  0.81293142  0.12350774  0.64654156     0.09200
H161        H  0.80820980  0.16077405  0.64065122     0.08300
N162        N  0.85887085  0.12343832  0.63895170    -0.35500
N163        N  0.86824460  0.13047403  0.63814909    -0.27700
C164        C  0.87813374  0.12377666  0.63759738    -0.03000
C165        C  0.87486261  0.11190763  0.63793557     0.05600
C166        C  0.86256238  0.11208359  0.63876886     0.03700
H167        H  0.88704432  0.12732335  0.63698370     0.08800
H168        H  0.85668420  0.10448992  0.63908141     0.07700
N169        N  0.89350681  0.32888839  0.66418715    -0.26700
N170        N  0.89344044  0.31774272  0.66783808    -0.34600
C171        C  0.89365045  0.31748339  0.67974078     0.01600
C172        C  0.89392601  0.32903527  0.68383753     0.07700
C173        C  0.89379843  0.33607193  0.67374252    -0.05400
H174        H  0.89348888  0.30946219  0.68502122     0.08300
H175        H  0.89394949  0.34566812  0.67336569     0.09500
Cu176      Cu  0.89274188  0.30331830  0.65669809     0.44200
Cu177      Cu  0.89305831  0.33350387  0.64635496     0.42000
Cu178      Cu  0.89098236  0.30861965  0.62538509     0.43900
N179        N  0.89048505  0.29002083  0.64442450    -0.34100
N180        N  0.88978069  0.29183583  0.63285372    -0.28400
C181        C  0.88760658  0.28140463  0.62743020    -0.04500
C182        C  0.88686445  0.27270703  0.63608189     0.07800
C183        C  0.88875537  0.27846625  0.64672673     0.01600
H184        H  0.88628563  0.28030143  0.61798102     0.09200
H185        H  0.88859476  0.27460373  0.65551856     0.08300
N186        N  0.89180913  0.32635678  0.62048233    -0.35500
N187        N  0.89252268  0.33534864  0.62802047    -0.27700
C188        C  0.89279414  0.34557498  0.62185026    -0.03000
C189        C  0.89220980  0.34289110  0.60986748     0.05600
C190        C  0.89161040  0.33063152  0.60934143     0.03700
H191        H  0.89328303  0.35431833  0.62580670     0.08800
H192        H  0.89111604  0.32520026  0.60142668     0.07700
N193        N  0.86057491  0.35471268  0.82781930    -0.26700
N194        N  0.85682674  0.35132280  0.81721887    -0.34600
C195        C  0.84495125  0.35005594  0.81744967     0.01600
C196        C  0.84095497  0.35276618  0.82875297     0.07700
C197        C  0.85112158  0.35567924  0.83510033    -0.05400
H198        H  0.83959280  0.34764697  0.80985247     0.08300
H199        H  0.85159413  0.35841540  0.84429496     0.09500
Cu200      Cu  0.86783112  0.34918658  0.80267842     0.44200
Cu201      Cu  0.87838514  0.35829140  0.83161852     0.42000
Cu202      Cu  0.89827683  0.35839825  0.80605972     0.43900
N203        N  0.88014526  0.34868918  0.78907846    -0.34100
N204        N  0.89129377  0.35217267  0.79023316    -0.28400
C205        C  0.89686989  0.35093071  0.77973644    -0.04500
C206        C  0.88879089  0.34650776  0.77157809     0.07800
C207        C  0.87829040  0.34519691  0.77782640     0.01600
H208        H  0.90609293  0.35312000  0.77816725     0.09200
H209        H  0.86984573  0.34216484  0.77438818     0.08300
N210        N  0.90370008  0.36190315  0.82327472    -0.35500
N211        N  0.89663975  0.36148126  0.83265943    -0.27700
C212        C  0.90330281  0.36270844  0.84252537    -0.03000
C213        C  0.91510968  0.36394707  0.83918466     0.05600
C214        C  0.91496079  0.36350846  0.82689573     0.03700
H215        H  0.89987931  0.36217206  0.85149004     0.08800
H216        H  0.92254916  0.36382496  0.82100201     0.07700
N217        N  0.66684301  0.16862151  0.83606326    -0.26700
N218        N  0.66770109  0.17968029  0.83218636    -0.34600
C219        C  0.66839366  0.17957175  0.82024929     0.01600
C220        C  0.66782875  0.16790500  0.81642411     0.07700
C221        C  0.66682239  0.16120116  0.82667750    -0.05400
H222        H  0.66916267  0.18740908  0.81475129     0.08300
H223        H  0.66626251  0.15163079  0.82727461     0.09500
Cu224      Cu  0.66769113  0.19450122  0.84323023     0.44200
Cu225      Cu  0.66607256  0.16409616  0.85396568     0.42000
Cu226      Cu  0.66662796  0.18892804  0.87467409     0.43900
N227        N  0.66818351  0.20787873  0.85597074    -0.34100
N228        N  0.66824084  0.20579997  0.86751453    -0.28400
C229        C  0.66990299  0.21610638  0.87333953    -0.04500
C230        C  0.67085036  0.22519801  0.86507573     0.07800
C231        C  0.66956691  0.21959785  0.85415136     0.01600
H232        H  0.67085513  0.21683203  0.88286918     0.09200
H233        H  0.66996169  0.22367323  0.84546651     0.08300
N234        N  0.66538894  0.17129757  0.87979075    -0.35500
N235        N  0.66544732  0.16221788  0.87234104    -0.27700
C236        C  0.66484753  0.15206542  0.87862639    -0.03000
C237        C  0.66429931  0.15489516  0.89060986     0.05600
C238        C  0.66462327  0.16718245  0.89096540     0.03700
H239        H  0.66485280  0.14327421  0.87474788     0.08800
H240        H  0.66424311  0.17276022  0.89878146     0.07700
N241        N  0.69855591  0.33033930  0.87293959    -0.26700
N242        N  0.70884738  0.32562280  0.86983884    -0.34600
C243        C  0.70791713  0.31372302  0.87013810     0.01600
C244        C  0.69648487  0.31075823  0.87362165     0.07700
C245        C  0.69079624  0.32155008  0.87532739    -0.05400
H246        H  0.71496079  0.30766650  0.86769886     0.08300
H247        H  0.68166596  0.32292378  0.87798152     0.09500
Cu248      Cu  0.72353755  0.33559215  0.86484016     0.44200
Cu249      Cu  0.69557163  0.34853444  0.87313450     0.42000
Cu250      Cu  0.71995801  0.36741959  0.86258019     0.43900
N251        N  0.73701500  0.34702411  0.85956376    -0.34100
N252        N  0.73575475  0.35865094  0.85848881    -0.28400
C253        C  0.74619864  0.36336861  0.85497465    -0.04500
C254        C  0.75441234  0.35425588  0.85388453     0.07800
C255        C  0.74825481  0.34404451  0.85684858     0.01600
H256        H  0.74777812  0.37274502  0.85361626     0.09200
H257        H  0.75172927  0.33509514  0.85710233     0.08300
N258        N  0.70340469  0.37375372  0.86799072    -0.35500
N259        N  0.69465344  0.36691132  0.87184788    -0.27700
C260        C  0.68515302  0.37373054  0.87430922    -0.03000
C261        C  0.68801627  0.38543426  0.87188003     0.05600
C262        C  0.69967101  0.38511307  0.86792659     0.03700
H263        H  0.67671447  0.37038258  0.87746553     0.08800
H264        H  0.70494482  0.39256015  0.86491885     0.07700
N265        N  0.69990529  0.13870312  0.67234572    -0.26700
N266        N  0.70431595  0.13893246  0.68324015    -0.34600
C267        C  0.71626184  0.13910433  0.68255043     0.01600
C268        C  0.71953841  0.13897453  0.67067159     0.07700
C269        C  0.70891983  0.13869718  0.66447143    -0.05400
H270        H  0.72214296  0.13944978  0.69013777     0.08300
H271        H  0.70781739  0.13876334  0.65492916     0.09500
Cu272      Cu  0.69393565  0.13959561  0.69863032     0.44200
Cu273      Cu  0.68182445  0.13872323  0.66853690     0.42000
Cu274      Cu  0.66223288  0.14102123  0.69387937     0.43900
N275        N  0.68157807  0.14154852  0.71235451    -0.34100
N276        N  0.67000483  0.14238807  0.71050261    -0.28400
C277        C  0.66446369  0.14424969  0.72093407    -0.04500
C278        C  0.67293565  0.14451507  0.72981831     0.07800
C279        C  0.68368799  0.14275330  0.72407623     0.01600
H280        H  0.65498015  0.14541374  0.72196131     0.09200
H281        H  0.69241439  0.14268811  0.72808996     0.08300
N282        N  0.65630741  0.13876748  0.67660245    -0.35500
N283        N  0.66340550  0.13805214  0.66726763    -0.27700
C284        C  0.65675684  0.13636437  0.65746196    -0.03000
C285        C  0.64492807  0.13592235  0.66083628     0.05600
C286        C  0.64499068  0.13749308  0.67301979     0.03700
H287        H  0.66028106  0.13527671  0.64858659     0.08800
H288        H  0.63736385  0.13762215  0.67886792     0.07700
N289        N  0.19468465  0.62753889  0.83466052    -0.26700
N290        N  0.19890656  0.62889722  0.82377838    -0.34600
C291        C  0.21082662  0.62876590  0.82413064     0.01600
C292        C  0.21434588  0.62726465  0.83578303     0.07700
C293        C  0.20388878  0.62653786  0.84225603    -0.05400
H294        H  0.21652353  0.62997896  0.81649224     0.08300
H295        H  0.20303688  0.62549189  0.85176543     0.09500
Cu296      Cu  0.18859986  0.63158909  0.80883639     0.44200
Cu297      Cu  0.17657439  0.62759562  0.83856835     0.42000
Cu298      Cu  0.15725477  0.63347371  0.81320496     0.43900
N299        N  0.17679326  0.63509225  0.79524030    -0.34100
N300        N  0.16520607  0.63594459  0.79687593    -0.28400
C301        C  0.15995309  0.63844548  0.78645101    -0.04500
C302        C  0.16869379  0.63914817  0.77784801     0.07800
C303        C  0.17926214  0.63698855  0.78372053     0.01600
H304        H  0.15049283  0.63957300  0.78521863     0.09200
H305        H  0.18808664  0.63689404  0.77992412     0.08300
N306        N  0.15118900  0.63048173  0.83024751    -0.35500
N307        N  0.15809107  0.62846326  0.83953202    -0.27700
C308        C  0.15118583  0.62707908  0.84920213    -0.03000
C309        C  0.13938718  0.62823121  0.84581007     0.05600
C310        C  0.13977507  0.63034217  0.83371677     0.03700
H311        H  0.15451634  0.62542634  0.85806155     0.08800
H312        H  0.13229937  0.63159071  0.82781081     0.07700
N313        N  0.35916511  0.66186596  0.86177899    -0.26700
N314        N  0.34860046  0.66606896  0.85882302    -0.34600
C315        C  0.34911994  0.67797266  0.85828486     0.01600
C316        C  0.36055968  0.68150355  0.86100708     0.07700
C317        C  0.36670108  0.67106176  0.86322573    -0.05400
H318        H  0.34170638  0.68364687  0.85602819     0.08300
H319        H  0.37600119  0.67020426  0.86547549     0.09500
Cu320      Cu  0.33379120  0.65568660  0.85555877     0.44200
Cu321      Cu  0.36280240  0.64375171  0.86318385     0.42000
Cu322      Cu  0.33733520  0.62422695  0.85817260     0.43900
N323        N  0.31982775  0.64386791  0.85384611    -0.34100
N324        N  0.32107064  0.63226266  0.85505717    -0.28400
C325        C  0.31034629  0.62707374  0.85408569    -0.04500
C326        C  0.30199959  0.63586408  0.85210808     0.07800
C327        C  0.30830373  0.64639623  0.85197561     0.01600
H328        H  0.30874025  0.61763109  0.85478953     0.09200
H329        H  0.30475260  0.65524478  0.85083672     0.08300
N330        N  0.35444110  0.61825217  0.86144172    -0.35500
N331        N  0.36372705  0.62524195  0.86322616    -0.27700
C332        C  0.37341451  0.61842145  0.86492112    -0.03000
C333        C  0.37001692  0.60661435  0.86422955     0.05600
C334        C  0.35794722  0.60685626  0.86201027     0.03700
H335        H  0.38225942  0.62179643  0.86658093     0.08800
H336        H  0.35214469  0.59929245  0.86079836     0.07700
N337        N  0.39253440  0.82671186  0.84114931    -0.26700
N338        N  0.39309538  0.81602811  0.83632359    -0.34600
C339        C  0.39341378  0.81707539  0.82446738     0.01600
C340        C  0.39306243  0.82899499  0.82169570     0.07700
C341        C  0.39254426  0.83490523  0.83244955    -0.05400
H342        H  0.39367412  0.80969855  0.81831893     0.08300
H343        H  0.39195812  0.84439201  0.83383703     0.09500
Cu344      Cu  0.39269262  0.80042527  0.84581473     0.44200
Cu345      Cu  0.39154133  0.82933707  0.85929536     0.42000
Cu346      Cu  0.39081005  0.80220900  0.87745286     0.43900
N347        N  0.39029121  0.78577902  0.85647235    -0.34100
N348        N  0.38943984  0.78632517  0.86816055    -0.28400
C349        C  0.38707261  0.77538504  0.87236406    -0.04500
C350        C  0.38641212  0.76763238  0.86281005     0.07800
C351        C  0.38850026  0.77454848  0.85289319     0.01600
H352        H  0.38568535  0.77328210  0.88163267     0.09200
H353        H  0.38828920  0.77171774  0.84371738     0.08300
N354        N  0.39207074  0.81933702  0.88421155    -0.35500
N355        N  0.39212660  0.82908645  0.87765266    -0.27700
C356        C  0.39321263  0.83858897  0.88478977    -0.03000
C357        C  0.39392878  0.83465580  0.89639579     0.05600
C358        C  0.39315778  0.82240942  0.89570402     0.03700
H359        H  0.39356975  0.84768918  0.88173109     0.08800
H360        H  0.39355684  0.81617246  0.90299935     0.07700
N361        N  0.20234561  0.82610149  0.63896883    -0.26700
N362        N  0.21286087  0.82168176  0.64171856    -0.34600
C363        C  0.21208101  0.80978433  0.64232841     0.01600
C364        C  0.20048836  0.80652125  0.63984751     0.07700
C365        C  0.19456459  0.81710131  0.63772327    -0.05400
H366        H  0.21938895  0.80395374  0.64452302     0.08300
H367        H  0.18523762  0.81818769  0.63569863     0.09500
Cu368      Cu  0.22765040  0.83209869  0.64487027     0.44200
Cu369      Cu  0.19924024  0.84425124  0.63754895     0.42000
Cu370      Cu  0.22490326  0.86397618  0.64180285     0.43900
N371        N  0.24141821  0.84385583  0.64791053    -0.34100
N372        N  0.24059574  0.85551211  0.64677682    -0.28400
C373        C  0.25117730  0.86040376  0.64953743    -0.04500
C374        C  0.25896697  0.85135026  0.65257286     0.07800
C375        C  0.25245716  0.84101377  0.65139846     0.01600
H376        H  0.25302076  0.86983143  0.64947247     0.09200
H377        H  0.25553487  0.83204509  0.65292939     0.08300
N378        N  0.20778280  0.86978912  0.63780369    -0.35500
N379        N  0.19849868  0.86268570  0.63656151    -0.27700
C380        C  0.18878492  0.86931214  0.63442281    -0.03000
C381        C  0.19207411  0.88117472  0.63418768     0.05600
C382        C  0.20420498  0.88110068  0.63636219     0.03700
H383        H  0.17995247  0.86573096  0.63319397     0.08800
H384        H  0.21004135  0.88872324  0.63679999     0.07700
N385        N  0.36515859  0.85096523  0.67778753    -0.26700
N386        N  0.36111804  0.85077167  0.68881114    -0.34600
C387        C  0.34919814  0.85086760  0.68867234     0.01600
C388        C  0.34548294  0.85117900  0.67699218     0.07700
C389        C  0.35582678  0.85118978  0.67029187    -0.05400
H390        H  0.34364764  0.85080137  0.69651313     0.08300
H391        H  0.35651211  0.85154981  0.66071706     0.09500
Cu392      Cu  0.37176145  0.85072962  0.70367344     0.44200
Cu393      Cu  0.38323794  0.85124708  0.67378022     0.42000
Cu394      Cu  0.40328737  0.85035292  0.69941589     0.43900
N395        N  0.38374560  0.85068366  0.71747263    -0.34100
N396        N  0.39537983  0.85037672  0.71597550    -0.28400
C397        C  0.40066475  0.84993950  0.72667362    -0.04500
C398        C  0.39187754  0.85002427  0.73526681     0.07800
C399        C  0.38127346  0.85049353  0.72913134     0.01600
H400        H  0.41015428  0.84939195  0.72807763     0.09200
H401        H  0.37241410  0.85031621  0.73284749     0.08300
N402        N  0.40888864  0.85149166  0.68196993    -0.35500
N403        N  0.40171709  0.85185108  0.67266817    -0.27700
C404        C  0.40831694  0.85318025  0.66278631    -0.03000
C405        C  0.42018340  0.85372263  0.66604053     0.05600
C406        C  0.42018279  0.85260823  0.67826851     0.03700
H407        H  0.40472311  0.85391472  0.65390568     0.08800
H408        H  0.42780835  0.85298635  0.68410636     0.07700
N409        N  0.16380036  0.66540183  0.67247241    -0.26700
N410        N  0.16468768  0.67632173  0.67668846    -0.34600
C411        C  0.16523521  0.67582279  0.68860874     0.01600
C412        C  0.16466230  0.66401859  0.69200886     0.07700
C413        C  0.16375622  0.65766525  0.68155121    -0.05400
H414        H  0.16605716  0.68346878  0.69436488     0.08300
H415        H  0.16330074  0.64811926  0.68058644     0.09500
Cu416      Cu  0.16555857  0.69131586  0.66599646     0.44200
Cu417      Cu  0.16301545  0.66139311  0.65463794     0.42000
Cu418      Cu  0.16603072  0.68592373  0.63419417     0.43900
N419        N  0.16736175  0.70463569  0.65337096    -0.34100
N420        N  0.16766071  0.70266386  0.64179316    -0.28400
C421        C  0.16959352  0.71301260  0.63613831    -0.04500
C422        C  0.17057655  0.72193277  0.64455977     0.07800
C423        C  0.16908782  0.71628767  0.65538302     0.01600
H424        H  0.17048928  0.71392769  0.62661842     0.09200
H425        H  0.16968583  0.72028046  0.66409731     0.08300
N426        N  0.16381220  0.66838216  0.62891567    -0.35500
N427        N  0.16264779  0.65945677  0.63644756    -0.27700
C428        C  0.16126124  0.64929801  0.63034081    -0.03000
C429        C  0.16157207  0.65194425  0.61836362     0.05600
C430        C  0.16320255  0.66412147  0.61777203     0.03700
H431        H  0.16006520  0.64064486  0.63433637     0.08800
H432        H  0.16395949  0.66947203  0.60983140     0.07700
N433        N  0.67057428  0.82968018  0.17537191    -0.26700
N434        N  0.67032706  0.81878408  0.17971397    -0.34600
C435        C  0.67065652  0.81931816  0.19163391     0.01600
C436        C  0.67116697  0.83112989  0.19495219     0.07700
C437        C  0.67111528  0.83747209  0.18442486    -0.05400
H438        H  0.67067394  0.81167563  0.19744927     0.08300
H439        H  0.67140318  0.84702038  0.18342306     0.09500
Cu440      Cu  0.67007401  0.80372029  0.16920152     0.44200
Cu441      Cu  0.67018940  0.83319106  0.15731586     0.42000
Cu442      Cu  0.67026322  0.80743429  0.13729637     0.43900
N443        N  0.67138874  0.78973703  0.15735635    -0.34100
N444        N  0.67165495  0.79094747  0.14567574    -0.28400
C445        C  0.67320677  0.78014595  0.14072592    -0.04500
C446        C  0.67388111  0.77178865  0.14976249     0.07800
C447        C  0.67270162  0.77821688  0.16015330     0.01600
H448        H  0.67387738  0.77850458  0.13128366     0.09200
H449        H  0.67306232  0.77480048  0.16912183     0.08300
N450        N  0.66937637  0.82509384  0.13169368    -0.35500
N451        N  0.66950916  0.83433431  0.13895938    -0.27700
C452        C  0.66897650  0.84438436  0.13253395    -0.03000
C453        C  0.66842224  0.84138880  0.12062613     0.05600
C454        C  0.66869354  0.82907371  0.12043946     0.03700
H455        H  0.66902211  0.85323127  0.13628351     0.08800
H456        H  0.66830838  0.82341178  0.11268425     0.07700
N457        N  0.69856008  0.86843173  0.33916067    -0.26700
N458        N  0.70367425  0.86596065  0.32888430    -0.34600
C459        C  0.71552379  0.86581621  0.33033848     0.01600
C460        C  0.71803132  0.86834243  0.34210671     0.07700
C461        C  0.70704777  0.86997315  0.34743890    -0.05400
H462        H  0.72183073  0.86369291  0.32341084     0.08300
H463        H  0.70533711  0.87192521  0.35668705     0.09500
Cu464      Cu  0.69436512  0.86247702  0.31342967     0.44200
Cu465      Cu  0.68025418  0.86884955  0.34150829     0.42000
Cu466      Cu  0.66227945  0.86260246  0.31535655     0.43900
N467        N  0.68330581  0.85958124  0.29904673    -0.34100
N468        N  0.67157515  0.85970997  0.29967109    -0.28400
C469        C  0.66709568  0.85759493  0.28878813    -0.04500
C470        C  0.67647918  0.85602929  0.28099303     0.07800
C471        C  0.68661362  0.85733686  0.28779442     0.01600
H472        H  0.65772674  0.85706119  0.28673748     0.09200
H473        H  0.69571734  0.85668514  0.28479421     0.08300
N474        N  0.65527006  0.86592505  0.33211130    -0.35500
N475        N  0.66180320  0.86815526  0.34162188    -0.27700
C476        C  0.65457925  0.86974670  0.35101773    -0.03000
C477        C  0.64294718  0.86849822  0.34723414     0.05600
C478        C  0.64372043  0.86608988  0.33520176     0.03700
H479        H  0.65757117  0.87168505  0.35993900     0.08800
H480        H  0.63643011  0.86444438  0.32916681     0.07700
N481        N  0.86121213  0.83639314  0.37204708    -0.26700
N482        N  0.85035752  0.83192800  0.37226563    -0.34600
C483        C  0.85102837  0.82001508  0.37219856     0.01600
C484        C  0.86289168  0.81677148  0.37202983     0.07700
C485        C  0.86910121  0.82741165  0.37195830    -0.05400
H486        H  0.84342149  0.81415042  0.37209388     0.08300
H487        H  0.87864048  0.82855067  0.37178201     0.09500
Cu488      Cu  0.83508093  0.84215621  0.37256718     0.44200
Cu489      Cu  0.86460769  0.85450239  0.37137322     0.42000
Cu490      Cu  0.83846684  0.87388314  0.37242400     0.43900
N491        N  0.82088041  0.85383081  0.37237397    -0.34100
N492        N  0.82203523  0.86550460  0.37215170    -0.28400
C493        C  0.81120700  0.87044591  0.37093543    -0.04500
C494        C  0.80284543  0.86141932  0.37037016     0.07800
C495        C  0.80932518  0.85102275  0.37140348     0.01600
H496        H  0.80960610  0.87986205  0.36991823     0.09200
H497        H  0.80594352  0.84204152  0.37095743     0.08300
N498        N  0.85589282  0.87989977  0.37170973    -0.35500
N499        N  0.86530865  0.87292360  0.37091524    -0.27700
C500        C  0.87512587  0.87970602  0.37028747    -0.03000
C501        C  0.87177862  0.89154302  0.37089055     0.05600
C502        C  0.85950048  0.89127892  0.37179964     0.03700
H503        H  0.88405318  0.87623669  0.36951563     0.08800
H504        H  0.85359633  0.89880686  0.37266520     0.07700
N505        N  0.86508081  0.63534998  0.17618135    -0.26700
N506        N  0.86053069  0.63582215  0.18699698    -0.34600
C507        C  0.84863972  0.63514269  0.18629451     0.01600
C508        C  0.84551606  0.63420083  0.17446559     0.07700
C509        C  0.85615743  0.63437652  0.16827242    -0.05400
H510        H  0.84268800  0.63567700  0.19381481     0.08300
H511        H  0.85731176  0.63404177  0.15874021     0.09500
Cu512      Cu  0.87049270  0.63802337  0.20225622     0.44200
Cu513      Cu  0.88320580  0.63651676  0.17290471     0.42000
Cu514      Cu  0.90206544  0.63989098  0.19938620     0.43900
N515        N  0.88171124  0.64081370  0.21651380    -0.34100
N516        N  0.89337754  0.64158721  0.21553051    -0.28400
C517        C  0.89801771  0.64412515  0.22625609    -0.04500
C518        C  0.88878538  0.64499993  0.23436360     0.07800
C519        C  0.87859194  0.64278557  0.22785912     0.01600
H520        H  0.90735444  0.64565185  0.22793530     0.09200
H521        H  0.86953623  0.64289381  0.23106940     0.08300
N522        N  0.90838580  0.63858135  0.18214175    -0.35500
N523        N  0.90163285  0.63755329  0.17257659    -0.27700
C524        C  0.90866166  0.63692026  0.16293149    -0.03000
C525        C  0.92038942  0.63751478  0.16660489     0.05600
C526        C  0.91985568  0.63856128  0.17883304     0.03700
H527        H  0.90546082  0.63597882  0.15391905     0.08800
H528        H  0.92727407  0.63904243  0.18492375     0.07700
N529        N  0.89591226  0.67399734  0.33938080    -0.26700
N530        N  0.89618806  0.68494749  0.33516935    -0.34600
C531        C  0.89561899  0.68455337  0.32324601     0.01600
C532        C  0.89498082  0.67277766  0.31975500     0.07700
C533        C  0.89519666  0.66633105  0.33023368    -0.05400
H534        H  0.89545380  0.69228263  0.31754817     0.08300
H535        H  0.89482359  0.65677666  0.33115036     0.09500
Cu536      Cu  0.89662262  0.69994701  0.34583234     0.44200
Cu537      Cu  0.89604855  0.67011063  0.35740543     0.42000
Cu538      Cu  0.89354067  0.69540386  0.37750370     0.43900
N539        N  0.89450300  0.71365484  0.35793049    -0.34100
N540        N  0.89299951  0.71206848  0.36946870    -0.28400
C541        C  0.89052605  0.72263048  0.37453274    -0.04500
C542        C  0.89046376  0.73126371  0.36574113     0.07800
C543        C  0.89311793  0.72522263  0.35535971     0.01600
H544        H  0.88839114  0.72384505  0.38382034     0.09200
H545        H  0.89351777  0.72888341  0.34648927     0.08300
N546        N  0.89459275  0.67778908  0.38309909    -0.35500
N547        N  0.89561404  0.66864114  0.37578855    -0.27700
C548        C  0.89621417  0.65857390  0.38219804    -0.03000
C549        C  0.89551129  0.66149250  0.39412185     0.05600
C550        C  0.89448489  0.67375225  0.39435505     0.03700
H551        H  0.89702559  0.64976365  0.37844646     0.08800
H552        H  0.89382001  0.67933855  0.40214783     0.07700
N553        N  0.69980896  0.66570619  0.14478935    -0.26700
N554        N  0.71033676  0.67064054  0.14660235    -0.34600
C555        C  0.70896563  0.68244354  0.14774465     0.01600
C556        C  0.69703950  0.68514691  0.14658286     0.07700
C557        C  0.69148032  0.67432442  0.14466748    -0.05400
H558        H  0.71613667  0.68862090  0.14939401     0.08300
H559        H  0.68206000  0.67280176  0.14354200     0.09500
Cu560      Cu  0.72634622  0.66148076  0.14783302     0.44200
Cu561      Cu  0.69716107  0.64739711  0.14311386     0.42000
Cu562      Cu  0.72417139  0.63006741  0.14565050     0.43900
N563        N  0.74099410  0.65032785  0.14937284    -0.34100
N564        N  0.74000206  0.63866643  0.14878286    -0.28400
C565        C  0.75069066  0.63369704  0.15055424    -0.04500
C566        C  0.75894878  0.64265342  0.15222231     0.07800
C567        C  0.75245164  0.65311781  0.15140373     0.01600
H568        H  0.75228021  0.62422814  0.15077533     0.09200
H569        H  0.75578534  0.66208805  0.15221943     0.08300
N570        N  0.70762963  0.62270695  0.14306785    -0.35500
N571        N  0.69765600  0.62885405  0.14225179    -0.27700
C572        C  0.68854494  0.62118289  0.14099099    -0.03000
C573        C  0.69307963  0.60971842  0.14096864     0.05600
C574        C  0.70519119  0.61106172  0.14231509     0.03700
H575        H  0.67932045  0.62374190  0.14016138     0.08800
H576        H  0.71175567  0.60407245  0.14291018     0.07700
N577        N  0.20216699  0.16103912  0.63082443    -0.26700
N578        N  0.21318458  0.16509831  0.63123177    -0.34600
C579        C  0.21291365  0.17704153  0.63076334     0.01600
C580        C  0.20116313  0.18061688  0.63009287     0.07700
C581        C  0.19460588  0.17024379  0.63012509    -0.05400
H582        H  0.22063740  0.18271293  0.63145108     0.08300
H583        H  0.18502930  0.16945387  0.63008090     0.09500
Cu584      Cu  0.22792281  0.15422608  0.63369767     0.44200
Cu585      Cu  0.19769732  0.14330077  0.63223540     0.42000
Cu586      Cu  0.22176372  0.12280395  0.63758736     0.43900
N587        N  0.24086475  0.14157712  0.63744162    -0.34100
N588        N  0.23860729  0.13014900  0.63893919    -0.28400
C589        C  0.24878942  0.12447178  0.64158486    -0.04500
C590        C  0.25791084  0.13272099  0.64176973     0.07800
C591        C  0.25254740  0.14346549  0.63910284     0.01600
H592        H  0.24948095  0.11504693  0.64329929     0.09200
H593        H  0.25679273  0.15207027  0.63864724     0.08300
N594        N  0.20417927  0.11765672  0.63565391    -0.35500
N595        N  0.19534403  0.12517825  0.63384547    -0.27700
C596        C  0.18514427  0.11905782  0.63268598    -0.03000
C597        C  0.18773819  0.10712757  0.63376333     0.05600
C598        C  0.19985865  0.10652929  0.63560628     0.03700
H599        H  0.17657242  0.12297122  0.63081500     0.08800
H600        H  0.20516946  0.09858763  0.63659631     0.07700
N601        N  0.36325682  0.13131679  0.66990426    -0.26700
N602        N  0.35871595  0.13351577  0.68051039    -0.34600
C603        C  0.34681308  0.13355894  0.67976463     0.01600
C604        C  0.34363895  0.13132360  0.66811652     0.07700
C605        C  0.35429520  0.12991224  0.66208965    -0.05400
H606        H  0.34089871  0.13510859  0.68717304     0.08300
H607        H  0.35545029  0.12816397  0.65271611     0.09500
Cu608      Cu  0.36867943  0.13636472  0.69565588     0.44200
Cu609      Cu  0.38146645  0.13050560  0.66676078     0.42000
Cu610      Cu  0.40033755  0.13324655  0.69303264     0.43900
N611        N  0.38012901  0.13791384  0.70991042    -0.34100
N612        N  0.39174889  0.13645684  0.70903659    -0.28400
C613        C  0.39663408  0.13770242  0.71987063    -0.44100
C614        C  0.38763796  0.14011711  0.72788985     0.07800
C615        C  0.37729615  0.14021696  0.72128547     0.01600
H616        H  0.40603345  0.13705440  0.72174804     0.09200
H617        H  0.36837947  0.14177370  0.72451149     0.08300
N618        N  0.40676888  0.13112440  0.67587088    -0.35500
N619        N  0.39995739  0.13024411  0.66633572    -0.27700
C620        C  0.40693459  0.12924678  0.65667612    -0.03000
C621        C  0.41870231  0.12948999  0.66028529     0.05600
C622        C  0.41823459  0.13067572  0.67252187     0.03700
H623        H  0.40367403  0.12849714  0.64766770     0.08800
H624        H  0.42568897  0.13113568  0.67857095     0.07700
N625        N  0.16585582  0.32310054  0.66415864    -0.26700
N626        N  0.16812061  0.31226148  0.66799696    -0.34600
C627        C  0.16857783  0.31228804  0.67989191     0.01600
C628        C  0.16664030  0.32374785  0.68381987     0.07700
C629        C  0.16489409  0.33040032  0.67359181    -0.05400
H630        H  0.17030168  0.30452391  0.68527360     0.08300
H631        H  0.16329906  0.33985489  0.67303443     0.09500
Cu632      Cu  0.17099475  0.29796529  0.65704143     0.44200
Cu633      Cu  0.16463908  0.32700276  0.64618307     0.42000
Cu634      Cu  0.16765003  0.30146449  0.62561919     0.43900
N635        N  0.17327182  0.28425919  0.64522337    -0.34100
N636        N  0.17169775  0.28525552  0.63363523    -0.28400
C637        C  0.17364603  0.27457557  0.62858114    -0.04500
C638        C  0.17667933  0.26661527  0.63747633     0.07800
C639        C  0.17635434  0.27306143  0.64788206     0.01600
H640        H  0.17309141  0.27277907  0.61916123     0.09200
H641        H  0.17815713  0.26984287  0.65674773     0.08300
N642        N  0.16559299  0.31913417  0.62038415    -0.35500
N643        N  0.16467215  0.32823893  0.62777602    -0.27700
C644        C  0.16411213  0.33835402  0.62145314    -0.03000
C645        C  0.16466375  0.33554937  0.60949559     0.05600
C646        C  0.16558454  0.32327410  0.60916611     0.03700
H647        H  0.16356584  0.34713678  0.62531132     0.08800
H648        H  0.16627867  0.31774862  0.60133406     0.07700
N649        N  0.39937946  0.16456240  0.83334752    -0.26700
N650        N  0.40029848  0.17527537  0.82860417    -0.34600
C651        C  0.40041404  0.17424656  0.81669823     0.01600
C652        C  0.39943051  0.16235176  0.81381777     0.07700
C653        C  0.39876241  0.15645383  0.82457251    -0.05400
H654        H  0.40060866  0.18164636  0.81058155     0.08300
H655        H  0.39760651  0.14701239  0.82591459     0.09500
Cu656      Cu  0.39972828  0.19099286  0.83832428     0.44200
Cu657      Cu  0.39845022  0.16147184  0.85151310     0.42000
Cu658      Cu  0.39630141  0.18774718  0.87001614     0.43900
N659        N  0.39625859  0.20520812  0.84963895    -0.34100
N660        N  0.39483536  0.20395467  0.86123023    -0.28400
C661        C  0.39162038  0.21447340  0.86591573    -0.04500
C662        C  0.39094520  0.22277932  0.85685215     0.07800
C663        C  0.39399580  0.21657669  0.84665321     0.01600
H664        H  0.38954190  0.21588519  0.87518847     0.09200
H665        H  0.39398265  0.21993755  0.83765796     0.08300
N666        N  0.39751353  0.17055813  0.87672210    -0.35500
N667        N  0.39810446  0.16096977  0.86995276    -0.27700
C668        C  0.39853005  0.15128496  0.87694144    -0.03000
C669        C  0.39824667  0.15495187  0.88866847     0.05600
C670        C  0.39762130  0.16721949  0.88820727     0.03700
H671        H  0.39903877  0.14224547  0.87372937     0.08800
H672        H  0.39712036  0.17325577  0.89566433     0.07700
N673        N  0.35590442  0.32611937  0.86548552    -0.26700
N674        N  0.34510851  0.32152637  0.86473810    -0.34600
C675        C  0.34600819  0.30962317  0.86390169     0.01600
C676        C  0.35793942  0.30654495  0.86411322     0.07700
C677        C  0.36393274  0.31725119  0.86515940    -0.05400
H678        H  0.33853391  0.30365816  0.86299973     0.08300
H679        H  0.37345309  0.31852587  0.86530179     0.09500
Cu680      Cu  0.32962737  0.33169561  0.86406140     0.44200
Cu681      Cu  0.35934517  0.34431798  0.86611779     0.42000
Cu682      Cu  0.33389968  0.36363456  0.86342112     0.43900
N683        N  0.31583036  0.34390438  0.86210562    -0.34100
N684        N  0.31749105  0.35552864  0.86175694    -0.28400
C685        C  0.30705756  0.36092784  0.85961454    -0.04500
C686        C  0.29838003  0.35230769  0.85858806     0.07800
C687        C  0.30423301  0.34161457  0.86024467     0.01600
H688        H  0.30592359  0.37041288  0.85861434     0.09200
H689        H  0.30041696  0.33281631  0.85970274     0.08300
N690        N  0.35117023  0.36981688  0.86458351    -0.35500
N691        N  0.36052378  0.36280343  0.86570562    -0.27700
C692        C  0.37037216  0.36957646  0.86628951    -0.03000
C693        C  0.36702975  0.38138881  0.86541964     0.05600
C694        C  0.35479639  0.38119713  0.86435165     0.03700
H695        H  0.37930805  0.36616536  0.86721768     0.08800
H696        H  0.34894569  0.38878100  0.86357896     0.07700
N697        N  0.19381128  0.35711666  0.82827717    -0.26700
N698        N  0.19851764  0.35528213  0.81766633    -0.34600
C699        C  0.21041139  0.35498906  0.81864047     0.01600
C700        C  0.21335714  0.35678706  0.83041425     0.07700
C701        C  0.20263687  0.35813543  0.83629476    -0.05400
H702        H  0.21646253  0.35344062  0.81133984     0.08300
H703        H  0.20134429  0.35943282  0.84572538     0.09500
Cu704      Cu  0.18872603  0.35286578  0.80230678     0.44200
Cu705      Cu  0.17557954  0.35737215  0.83135160     0.42000
Cu706      Cu  0.15697491  0.35255613  0.80530135     0.43900
N707        N  0.17727277  0.35008994  0.78821586    -0.34100
N708        N  0.16559010  0.34983754  0.78935104    -0.28400
C709        C  0.16067466  0.34745430  0.77873694    -0.04500
C710        C  0.16972628  0.34622469  0.77054143     0.07800
C711        C  0.18013126  0.34795643  0.77682102     0.01600
H712        H  0.15123551  0.34666892  0.77711466     0.09200
H713        H  0.18910051  0.34752368  0.77340494     0.08300
N714        N  0.15043756  0.35472023  0.82229304    -0.35500
N715        N  0.15712166  0.35636583  0.83181420    -0.27700
C716        C  0.15003952  0.35694331  0.84143198    -0.03000
C717        C  0.13837540  0.35562824  0.83774308     0.05600
C718        C  0.13897052  0.35425026  0.82556709     0.03700
H719        H  0.15314834  0.35816877  0.85044063     0.08800
H720        H  0.13162877  0.35277302  0.81954637     0.07700
N721        N  0.19938881  0.63377145  0.17515418    -0.26700
N722        N  0.20380220  0.63383865  0.18604981    -0.34600
C723        C  0.21571386  0.63307827  0.18541730     0.01600
C724        C  0.21897360  0.63257612  0.17358123     0.07700
C725        C  0.20840473  0.63304985  0.16730892    -0.05400
H726        H  0.22160550  0.63337523  0.19299488     0.08300
H727        H  0.20736477  0.63315878  0.15775935     0.09500
Cu728      Cu  0.19370225  0.63622465  0.20136584     0.44200
Cu729      Cu  0.18135840  0.63541601  0.17141725     0.42000
Cu730      Cu  0.16289161  0.64322643  0.19665148     0.43900
N731        N  0.18205894  0.64054238  0.21508256    -0.34100
N732        N  0.17082664  0.64342736  0.21324222    -0.28400
C733        C  0.16572053  0.64620693  0.22368189    -0.04500
C734        C  0.17412752  0.64498688  0.23255978     0.07800
C735        C  0.18438877  0.64136549  0.22679069     0.01600
H736        H  0.15656548  0.64892825  0.22472995     0.09200
H737        H  0.19296886  0.63971182  0.23077821     0.08300
N738        N  0.15638079  0.64071354  0.17963491    -0.35500
N739        N  0.16305352  0.63779246  0.17041160    -0.27700
C740        C  0.15601192  0.63631963  0.16085973    -0.03000
C741        C  0.14437477  0.63835778  0.16427996     0.05600
C742        C  0.14493897  0.64112531  0.17622814     0.03700
H743        H  0.15908873  0.63366155  0.15215349     0.08800
H744        H  0.13756178  0.64308473  0.18206613     0.07700
N745        N  0.16729415  0.67020444  0.33866171    -0.26700
N746        N  0.16812543  0.68100608  0.33412621    -0.34600
C747        C  0.16817881  0.68026311  0.32221780     0.01600
C748        C  0.16731595  0.66843953  0.31904936     0.07700
C749        C  0.16674232  0.66227944  0.32968890    -0.05400
H750        H  0.16919132  0.68775396  0.31629260     0.08300
H751        H  0.16646493  0.65274422  0.33081852     0.09500
Cu752      Cu  0.17016291  0.69633074  0.34410816     0.44200
Cu753      Cu  0.16791963  0.66695287  0.35687806     0.42000
Cu754      Cu  0.17246145  0.69319334  0.37571379     0.43900
N755        N  0.17315660  0.71053084  0.35542108    -0.34100
N756        N  0.17402281  0.70941300  0.36707287    -0.28400
C757        C  0.17627118  0.72014028  0.37185002    -0.04500
C758        C  0.17687840  0.72839154  0.36274353     0.07800
C759        C  0.17485465  0.72197513  0.35245222     0.01600
H760        H  0.17760490  0.72177535  0.38122234     0.09200
H761        H  0.17472558  0.72535326  0.34346266     0.08300
N762        N  0.17056842  0.67599723  0.38212499    -0.35500
N763        N  0.16896102  0.66651375  0.37536173    -0.27700
C764        C  0.16801106  0.65688376  0.38238222    -0.03000
C765        C  0.16904343  0.66046958  0.39410940     0.05600
C766        C  0.17066353  0.67264153  0.39359370     0.03700
H767        H  0.16652952  0.64794279  0.37919158     0.08800
H768        H  0.17184768  0.67862931  0.40101455     0.07700
N769        N  0.36265215  0.66490047  0.14400970    -0.26700
N770        N  0.35180605  0.66940620  0.14420422    -0.34600
C771        C  0.35250673  0.68128509  0.14511341     0.01600
C772        C  0.36436492  0.68446576  0.14548793     0.07700
C773        C  0.37055795  0.67384529  0.14477544    -0.05400
H774        H  0.34493437  0.68719231  0.14521553     0.08300
H775        H  0.38009844  0.67271387  0.14467403     0.09500
Cu776      Cu  0.33644029  0.65939360  0.14312675     0.44200
Cu777      Cu  0.36613629  0.64681208  0.14230400     0.42000
Cu778      Cu  0.33997903  0.62781986  0.14057961     0.43900
N779        N  0.32236868  0.64761082  0.14382707    -0.34100
N780        N  0.32364379  0.63597024  0.14312471    -0.28400
C781        C  0.31306421  0.63077973  0.14515371    -0.04500
C782        C  0.30473483  0.63959935  0.14723923     0.07800
C783        C  0.31095909  0.65015817  0.14624097     0.01600
H784        H  0.31165661  0.62128971  0.14562048     0.09200
H785        H  0.30755096  0.65903171  0.14762448     0.08300
N786        N  0.35730219  0.62164003  0.13932368    -0.35500
N787        N  0.36684255  0.62844465  0.14018146    -0.27700
C788        C  0.37658763  0.62153304  0.13955419    -0.03000
C789        C  0.37301522  0.60981465  0.13821345     0.05600
C790        C  0.36071959  0.61027317  0.13805219     0.03700
H791        H  0.38560892  0.62478138  0.14023977     0.08800
H792        H  0.35466430  0.60286323  0.13716227     0.07700
N793        N  0.20074658  0.83422090  0.37363951    -0.26700
N794        N  0.21180353  0.83027600  0.37386242    -0.34600
C795        C  0.21169114  0.81833845  0.37367086     0.01600
C796        C  0.19999885  0.81460701  0.37326501     0.07700
C797        C  0.19328454  0.82489357  0.37326022    -0.05400
H798        H  0.21953077  0.81280798  0.37324560     0.08300
H799        H  0.18372538  0.82555518  0.37257914     0.09500
Cu800      Cu  0.22651134  0.84124772  0.37274841     0.44200
Cu801      Cu  0.19644331  0.85207413  0.37251268     0.42000
Cu802      Cu  0.22104587  0.87187987  0.36522547     0.43900
N803        N  0.23980017  0.85324088  0.36859990    -0.34100
N804        N  0.23783591  0.86434577  0.36537117    -0.28400
C805        C  0.24818309  0.86930110  0.36199321    -0.04500
C806        C  0.25708581  0.86088153  0.36316558     0.07800
C807        C  0.25142756  0.85085406  0.36747916     0.01600
H808        H  0.24906425  0.87820060  0.35849150     0.09200
H809        H  0.25538958  0.84228987  0.36925772     0.08300
N810        N  0.20353866  0.87730300  0.36697425    -0.35500
N811        N  0.19462834  0.87018898  0.36981951    -0.27700
C812        C  0.18467880  0.87669708  0.37104513    -0.03000
C813        C  0.18748439  0.88846013  0.36889570     0.05600
C814        C  0.19949737  0.88850496  0.36630199     0.03700
H815        H  0.17615650  0.87319413  0.37377518     0.08800
H816        H  0.20499267  0.89617527  0.36449325     0.07700
N817        N  0.36292354  0.86359183  0.33724915    -0.26700
N818        N  0.35898723  0.86019503  0.32672837    -0.34600
C819        C  0.34709375  0.85939300  0.32707863     0.01600
C820        C  0.34333705  0.86250122  0.33835589     0.07700
C821        C  0.35361468  0.86507690  0.34459885    -0.05400
H822        H  0.34157977  0.85691131  0.31961534     0.08300
H823        H  0.35426612  0.86808571  0.35369920     0.09500
Cu824      Cu  0.36978340  0.85762560  0.31212019     0.44200
Cu825      Cu  0.38072147  0.86647328  0.34081524     0.42000
Cu826      Cu  0.40089106  0.86441627  0.31544468     0.43900
N827        N  0.38185837  0.85674948  0.29833102    -0.34100
N828        N  0.39327988  0.85924822  0.29944276    -0.28400
C829        C  0.39864118  0.85765576  0.28886304    -0.04500
C830        C  0.39012640  0.85406252  0.28074163     0.07800
C831        C  0.37960950  0.85358497  0.28704963     0.01600
H832        H  0.40801361  0.85898552  0.28721415     0.09200
H833        H  0.37098216  0.85098703  0.28371906     0.08300
N834        N  0.40626426  0.86800526  0.33273690    -0.35500
N835        N  0.39895008  0.86862114  0.34191837    -0.27700
C836        C  0.40532003  0.87023511  0.35188707    -0.03000
C837        C  0.41721930  0.87063768  0.34885434     0.05600
C838        C  0.41749084  0.86923577  0.33664198     0.03700
H839        H  0.40157604  0.87079853  0.36072053     0.08800
H840        H  0.42529710  0.86868995  0.33106557     0.07700
N841        N  0.39615260  0.82682169  0.17512199    -0.26700
N842        N  0.39678895  0.81583196  0.17918510    -0.34600
C843        C  0.39649214  0.81604350  0.19111740     0.01600
C844        C  0.39549538  0.82773165  0.19483234     0.07700
C845        C  0.39530376  0.83432153  0.18440776    -0.05400
H846        H  0.39695576  0.80822886  0.19667588     0.08300
H847        H  0.39448118  0.84385492  0.18361077     0.09500
Cu848      Cu  0.39730513  0.80091875  0.16842828     0.44200
Cu849      Cu  0.39665971  0.83096226  0.15709034     0.42000
Cu850      Cu  0.39839802  0.80548721  0.13689761     0.43900
N851        N  0.39595495  0.78724051  0.15620328    -0.34100
N852        N  0.39633843  0.78883439  0.14458157    -0.28400
C853        C  0.39437423  0.77834870  0.13915674    -0.04500
C854        C  0.39265930  0.76975941  0.14781682     0.07800
C855        C  0.39373361  0.77574408  0.15850124     0.01600
H856        H  0.39393892  0.77712953  0.12963758     0.09200
H857        H  0.39253543  0.77209285  0.16730256     0.08300
N858        N  0.39873322  0.82312039  0.13144400    -0.35500
N859        N  0.39794790  0.83235796  0.13867378    -0.27700
C860        C  0.39808892  0.84238984  0.13215610    -0.03000
C861        C  0.39898220  0.83931888  0.12026290     0.05600
C862        C  0.39939741  0.82703392  0.12018089     0.03700
H863        H  0.39746366  0.85125830  0.13580160     0.08800
H864        H  0.40012488  0.82133653  0.11247496     0.07700
N865        N  0.66909733  0.17100151  0.16824666    -0.26700
N866        N  0.67560000  0.18004478  0.17195381    -0.34600
C867        C  0.67740167  0.17898275  0.18370276     0.01600
C868        C  0.67158263  0.16888557  0.18769359     0.07700
C869        C  0.66639219  0.16408562  0.17759650    -0.05400
H870        H  0.68253824  0.18518457  0.18894722     0.08300
H871        H  0.66091749  0.15620596  0.17706447     0.09500
Cu872      Cu  0.68060540  0.19418164  0.16128429     0.44200
Cu873      Cu  0.66446247  0.16824494  0.15061863     0.42000
Cu874      Cu  0.66844995  0.19368465  0.13169645     0.43900
N875        N  0.68130875  0.20851756  0.14976418    -0.34100
N876        N  0.67642435  0.20843815  0.13908733    -0.28400
C877        C  0.67775599  0.21918640  0.13408068    -0.04500
C878        C  0.68379448  0.22635419  0.14199067     0.07800
C879        C  0.68593252  0.21933333  0.15183573     0.01600
H880        H  0.67459375  0.22158602  0.12533213     0.09200
H881        H  0.69030344  0.22196164  0.15997743     0.08300
N882        N  0.66320000  0.17724934  0.12552165    -0.35500
N883        N  0.66198718  0.16779032  0.13235577    -0.27700
C884        C  0.65984449  0.15827991  0.12543755    -0.03000
C885        C  0.65971265  0.16196469  0.11369099     0.05600
C886        C  0.66179134  0.17406189  0.11411594     0.03700
H887        H  0.65898184  0.14927479  0.12867259     0.08800
H888        H  0.66267487  0.18005241  0.10665359     0.07700
N889        N  0.70772196  0.33195617  0.13710951    -0.26700
N890        N  0.71856039  0.32822868  0.13457138    -0.34600
C891        C  0.71838569  0.31641325  0.13297374     0.01600
C892        C  0.70687923  0.31253817  0.13460697     0.07700
C893        C  0.70032909  0.32257503  0.13726919    -0.05400
H894        H  0.72615616  0.31097956  0.13143816     0.08300
H895        H  0.69101217  0.32296714  0.13957988     0.09500
Cu896      Cu  0.73331435  0.33900378  0.13519407     0.44200
Cu897      Cu  0.70379452  0.34953658  0.14079770     0.42000
Cu898      Cu  0.72878183  0.36991469  0.14278595     0.43900
N899        N  0.74688525  0.35055344  0.13926830    -0.34100
N900        N  0.74530746  0.36180830  0.14220839    -0.28400
C901        C  0.75587411  0.36655176  0.14512736    -0.04500
C902        C  0.76445027  0.35781966  0.14399681     0.07800
C903        C  0.75844513  0.34780885  0.14025046     0.01600
H904        H  0.75716497  0.37556911  0.14818035     0.09200
H905        H  0.76214790  0.33909826  0.13860972     0.08300
N906        N  0.71114764  0.37524824  0.14282602    -0.35500
N907        N  0.70209326  0.36777990  0.14234628    -0.27700
C908        C  0.69191974  0.37399964  0.14195630    -0.03000
C909        C  0.69467224  0.38597453  0.14209836     0.05600
C910        C  0.70695484  0.38643380  0.14269438     0.03700
H911        H  0.68317323  0.37007739  0.14123205     0.08800
H912        H  0.71246132  0.39431052  0.14256372     0.07700
N913        N  0.70038655  0.13936434  0.33170292    -0.26700
N914        N  0.70461749  0.14287278  0.32132291    -0.34600
C915        C  0.71632544  0.14499856  0.32239088     0.01600
C916        C  0.71965104  0.14271422  0.33400362     0.07700
C917        C  0.70930553  0.13917889  0.33966135    -0.05400
H918        H  0.72207339  0.14761049  0.31515110     0.08300
H919        H  0.70836858  0.13645446  0.34882418     0.09500
Cu920      Cu  0.69456214  0.14365503  0.30592536     0.44200
Cu921      Cu  0.68283014  0.13428697  0.33437433     0.42000
Cu922      Cu  0.66527307  0.13054310  0.30770824     0.43900
N923        N  0.68330202  0.14173304  0.29149528    -0.34100
N924        N  0.67284550  0.13642713  0.29203148    -0.28400
C925        C  0.66796439  0.13630382  0.28113258    -0.04500
C926        C  0.67566967  0.14192155  0.27334717     0.07800
C927        C  0.68528732  0.14525817  0.28027419     0.01600
H928        H  0.65939790  0.13245631  0.27907935     0.09200
H929        H  0.69312312  0.15003290  0.27740008     0.08300
N930        N  0.65867866  0.12792103  0.32466975    -0.35500
N931        N  0.66501506  0.12940187  0.33444663    -0.27700
C932        C  0.65790031  0.12786780  0.34393626    -0.03000
C933        C  0.64653933  0.12536538  0.33992213     0.05600
C934        C  0.64738324  0.12544369  0.32766226     0.03700
H935        H  0.66068823  0.12891836  0.35307045     0.08800
H936        H  0.64024235  0.12411713  0.32136774     0.07700
N937        N  0.86961330  0.36568391  0.17034605    -0.26700
N938        N  0.86549155  0.36293228  0.18098593    -0.34600
C939        C  0.85363047  0.36188034  0.18040416     0.01600
C940        C  0.85013552  0.36413512  0.16884808     0.07700
C941        C  0.86049358  0.36650777  0.16270102    -0.05400
H942        H  0.84798436  0.35958471  0.18782897     0.08300
H943        H  0.86135545  0.36872206  0.15339447     0.09500
Cu944      Cu  0.87604026  0.36074028  0.19582779     0.44200
Cu945      Cu  0.88736763  0.36794766  0.16659876     0.42000
Cu946      Cu  0.90763025  0.36263853  0.19090917     0.43900
N947        N  0.88851230  0.35870972  0.20912133    -0.34100
N948        N  0.90009374  0.35939738  0.20732379    -0.28400
C949        C  0.90577308  0.35731118  0.21761163    -0.04500
C950        C  0.89733661  0.35517281  0.22627677     0.07800
C951        C  0.88648852  0.35615226  0.22059770     0.01600
H952        H  0.91532077  0.35705931  0.21862959     0.09200
H953        H  0.87778213  0.35492180  0.22447190     0.08300
N954        N  0.91297804  0.36645092  0.17377146    -0.35500
N955        N  0.90556495  0.36871764  0.16496873    -0.27700
C956        C  0.91181978  0.37125473  0.15513332    -0.03000
C957        C  0.92377544  0.37046710  0.15785440     0.05600
C958        C  0.92416645  0.36735335  0.16974517     0.03700
H959        H  0.90792119  0.37356799  0.14665920     0.08800
H960        H  0.93200290  0.36582048  0.17508736     0.07700
N961        N  0.90393630  0.32953642  0.33164930    -0.26700
N962        N  0.90563918  0.31867459  0.32752517    -0.34600
C963        C  0.90604435  0.31900672  0.31561200     0.01600
C964        C  0.90460085  0.33065216  0.31202834     0.07700
C965        C  0.90325930  0.33709693  0.32242365    -0.05400
H966        H  0.90723413  0.31131636  0.30997976     0.08300
H967        H  0.90204285  0.34658934  0.32323316     0.09500
Cu968      Cu  0.90707130  0.30374962  0.33803196     0.44200
Cu969      Cu  0.90298304  0.33360491  0.34962229     0.42000
Cu970      Cu  0.90587076  0.30843198  0.36952518     0.43900
N971        N  0.90562630  0.29008726  0.35012537    -0.34100
N972        N  0.90501794  0.29177835  0.36172171    -0.28400
C973        C  0.90247007  0.28138524  0.36701909    -0.04500
C974        C  0.90137723  0.27276579  0.35830376     0.07800
C975        C  0.90349240  0.27859983  0.34771118     0.01600
H976        H  0.90086905  0.28032426  0.37643243     0.09200
H977        H  0.90267915  0.27495510  0.33885952     0.08300
N978        N  0.90540056  0.32595322  0.37517144    -0.35500
N979        N  0.90403539  0.33513389  0.36798416    -0.27700
C980        C  0.90393156  0.34516393  0.37449100    -0.03000
C981        C  0.90534888  0.34215687  0.38634759     0.05600
C982        C  0.90626778  0.32989363  0.38641005     0.03700
H983        H  0.90290275  0.35399436  0.37085209     0.08800
H984        H  0.90756440  0.32423296  0.39406107     0.07700
N985        N  0.86394330  0.17072162  0.36487703    -0.26700
N986        N  0.85322789  0.17553241  0.36487827    -0.34600
C987        C  0.85431751  0.18742681  0.36470545     0.01600
C988        C  0.86629811  0.19024563  0.36453547     0.07700
C989        C  0.87212607  0.17942389  0.36467840    -0.05400
H990        H  0.84692811  0.19355916  0.36453153     0.08300
H991        H  0.88161678  0.17796843  0.36433178     0.09500
Cu992      Cu  0.83759182  0.16576667  0.36435475     0.44200
Cu993      Cu  0.86707147  0.15256705  0.36462872     0.42000
Cu994      Cu  0.84113883  0.13375614  0.36352119     0.43900
N995        N  0.82350346  0.15397339  0.36274375    -0.34100
N996        N  0.82481438  0.14230783  0.36235670    -0.28400
C997        C  0.81413072  0.13725304  0.36056684    -0.04500
C998        C  0.80568939  0.14615834  0.35979996     0.07800
C999        C  0.81194614  0.15664308  0.36124125     0.01600
H1000       H  0.81265714  0.12781072  0.35961092     0.09200
H1001       H  0.80842271  0.16556566  0.36078518     0.08300
N1002       N  0.85841472  0.12726005  0.36419772    -0.35500
N1003       N  0.86792035  0.13416010  0.36442408    -0.27700
C1004       C  0.87771530  0.12731311  0.36475327    -0.03000
C1005       C  0.87419959  0.11553792  0.36480375     0.05600
C1006       C  0.86190776  0.11583247  0.36445292     0.03700
H1007       H  0.88671795  0.13065501  0.36512835     0.08800
H1008       H  0.85594841  0.10829514  0.36439606     0.07700
N1009       N  0.36532745  0.32917408  0.12833497    -0.26700
N1010       N  0.35438179  0.32511463  0.12955004    -0.34600
C1011       C  0.35470429  0.31332815  0.13128277     0.01600
C1012       C  0.36643703  0.30969972  0.13124927     0.07700
C1013       C  0.37295809  0.31999286  0.12930312    -0.05400
H1014       H  0.34694761  0.30782581  0.13265156     0.08300
H1015       H  0.38252468  0.32079354  0.12893454     0.09500
Cu1016     Cu  0.33947640  0.33575901  0.12985774     0.44200
Cu1017     Cu  0.36895488  0.34720571  0.12612076     0.42000
Cu1018     Cu  0.34338574  0.36729878  0.13076957     0.43900
N1019       N  0.32562275  0.34749365  0.13228944    -0.34100
N1020       N  0.32694008  0.35913182  0.13294498    -0.28400
C1021       C  0.31632214  0.36407163  0.13545013    -0.04500
C1022       C  0.30797419  0.35505092  0.13643465     0.07800
C1023       C  0.31421191  0.34469263  0.13430524     0.01600
H1024       H  0.31486365  0.37346737  0.13681605     0.09200
H1025       H  0.31077215  0.33572521  0.13450811     0.08300
N1026       N  0.36070701  0.37287487  0.12742641    -0.35500
N1027       N  0.36980798  0.36570731  0.12540658    -0.27700
C1028       C  0.37956949  0.37232694  0.12340255    -0.03000
C1029       C  0.37653542  0.38423477  0.12430402     0.05600
C1030       C  0.36449293  0.38419475  0.12687974     0.03700
H1031       H  0.38827217  0.36871128  0.12152386     0.08800
H1032       H  0.35890206  0.39184475  0.12845753     0.07700
N1033       N  0.39936940  0.16674258  0.16838921    -0.26700
N1034       N  0.39890032  0.17775451  0.17243983    -0.34600
C1035       C  0.40000200  0.17762431  0.18430821     0.01600
C1036       C  0.40124714  0.16598167  0.18795936     0.07700
C1037       C  0.40077852  0.15928367  0.17763758    -0.05400
H1038       H  0.39976884  0.18543715  0.18989335     0.08300
H1039       H  0.40143924  0.14973060  0.17689961     0.09500
Cu1040     Cu  0.39664376  0.19261536  0.16192342     0.44200
Cu1041     Cu  0.39812354  0.16258278  0.15045088     0.42000
Cu1042     Cu  0.39408068  0.18796196  0.13062368     0.43900
N1043       N  0.39402998  0.20626979  0.14995972    -0.34100
N1044       N  0.39306688  0.20454949  0.13839594    -0.28400
C1045       C  0.39092760  0.21500545  0.13306415    -0.04500
C1046       C  0.39047648  0.22372320  0.14172406     0.07800
C1047       C  0.39250790  0.21786927  0.15233177     0.01600
H1048       H  0.38952654  0.21612947  0.12362745     0.09200
H1049       H  0.39246032  0.22167991  0.16114763     0.08300
N1050       N  0.39591508  0.17061676  0.12493208    -0.35500
N1051       N  0.39737360  0.16139011  0.13205089    -0.27700
C1052       C  0.39885162  0.15157958  0.12539257    -0.03000
C1053       C  0.39832580  0.15481538  0.11353829     0.05600
C1054       C  0.39643708  0.16693875  0.11359470     0.03700
H1055       H  0.40042092  0.14278499  0.12892223     0.08800
H1056       H  0.39586825  0.17273570  0.10595402     0.07700
N1057       N  0.37026431  0.13106213  0.32989003    -0.26700
N1058       N  0.36678497  0.13670734  0.32021438    -0.34600
C1059       C  0.35501914  0.13863968  0.32085384     0.01600
C1060       C  0.35079964  0.13385002  0.33138958     0.07700
C1061       C  0.36075998  0.12907141  0.33684986    -0.05400
H1062       H  0.34994755  0.14331411  0.31416738     0.08300
H1063       H  0.36111509  0.12452195  0.34530639     0.09500
Cu1064     Cu  0.37806794  0.14099391  0.30631646     0.44200
Cu1065     Cu  0.38790874  0.12719528  0.33355305     0.42000
Cu1066     Cu  0.40900210  0.13342795  0.30979227     0.43900
N1067       N  0.39044932  0.14241312  0.29276240    -0.34100
N1068       N  0.40175031  0.13942014  0.29387668    -0.28400
C1069       C  0.40724704  0.14104748  0.28336591    -0.04500
C1070       C  0.39899096  0.14529658  0.27527717     0.07800
C1071       C  0.38844972  0.14602592  0.28156369     0.01600
H1072       H  0.41657094  0.13935588  0.28175736     0.09200
H1073       H  0.37990231  0.14884180  0.27819822     0.08300
N1074       N  0.41387269  0.12853280  0.32694785    -0.35500
N1075       N  0.40621614  0.12621902  0.33556225    -0.27700
C1076       C  0.41225221  0.12369837  0.34557033    -0.03000
C1077       C  0.42429166  0.12446363  0.34315481     0.05600
C1078       C  0.42497215  0.12754036  0.33126336     0.03700
H1079       H  0.40817245  0.12165128  0.35402974     0.08800
H1080       H  0.43297108  0.12898221  0.32612228     0.07700
N1081       N  0.20533528  0.16285756  0.35698831    -0.26700
N1082       N  0.21539299  0.16688081  0.35243802    -0.34600
C1083       C  0.21403996  0.17840432  0.34964800     0.01600
C1084       C  0.20257828  0.18175135  0.35254744     0.07700
C1085       C  0.19729370  0.17168714  0.35715412    -0.05400
H1086       H  0.22108131  0.18410672  0.34646083     0.08300
H1087       H  0.18854809  0.17104419  0.36107809     0.09500
Cu1088     Cu  0.23107106  0.15721971  0.35200675     0.44200
Cu1089     Cu  0.20346003  0.14612150  0.36429019     0.42000
Cu1090     Cu  0.23070548  0.12995909  0.36900308     0.43900
N1091       N  0.24610737  0.14718293  0.35551886    -0.34100
N1092       N  0.24605260  0.13768183  0.36239400    -0.28400
C1093       C  0.25721599  0.13360266  0.36347933    -0.04500
C1094       C  0.26470478  0.14072164  0.35676202     0.07800
C1095       C  0.25728431  0.14924777  0.35184437     0.01600
H1096       H  0.25963657  0.12591441  0.36869816     0.09200
H1097       H  0.25976951  0.15633600  0.34585212     0.08300
N1098       N  0.21402678  0.12307948  0.37269092    -0.35500
N1099       N  0.20406154  0.12905438  0.37101840    -0.27700
C1100       C  0.19477879  0.12192875  0.37337775    -0.03000
C1101       C  0.19910133  0.11090538  0.37661099     0.05600
C1102       C  0.21134570  0.11194687  0.37609040     0.03700
H1103       H  0.18556678  0.12439973  0.37222245     0.08800
H1104       H  0.21781147  0.10500710  0.37762237     0.07700
N1105       N  0.20299345  0.35669095  0.16611218    -0.26700
N1106       N  0.20780732  0.35593752  0.17679357    -0.34600
C1107       C  0.21968876  0.35644170  0.17575001     0.01600
C1108       C  0.22250303  0.35756725  0.16383825     0.07700
C1109       C  0.21169376  0.35769187  0.15797492    -0.05400
H1110       H  0.22583234  0.35584233  0.18310631     0.08300
H1111       H  0.21025171  0.35846516  0.14850877     0.09500
Cu1112     Cu  0.19812718  0.35402051  0.19233320     0.44200
Cu1113     Cu  0.18484121  0.35643253  0.16315808     0.42000
Cu1114     Cu  0.16628209  0.35501027  0.18963406     0.43900
N1115       N  0.18670303  0.35189955  0.20660921    -0.34100
N1116       N  0.17500963  0.35230980  0.20563938    -0.28400
C1117       C  0.17014755  0.35050927  0.21640641    -0.04500
C1118       C  0.17922759  0.34888932  0.22454831     0.07800
C1119       C  0.18960526  0.34982721  0.21801197     0.01600
H1120       H  0.16070234  0.35026513  0.21815721     0.09200
H1121       H  0.19860165  0.34910133  0.22129990     0.08300
N1122       N  0.15973355  0.35683156  0.17250406    -0.35500
N1123       N  0.16646593  0.35716127  0.16287759    -0.27700
C1124       C  0.15946324  0.35809280  0.15324933    -0.03000
C1125       C  0.14776400  0.35836171  0.15699429     0.05600
C1126       C  0.14826813  0.35755999  0.16924886     0.03700
H1127       H  0.16265214  0.35840301  0.14418612     0.08800
H1128       H  0.14084151  0.35744687  0.17535320     0.07700
N1129       N  0.17035014  0.32608846  0.33091089    -0.26700
N1130       N  0.17063401  0.31524460  0.32644719    -0.34600
C1131       C  0.17070055  0.31584237  0.31454814     0.01600
C1132       C  0.17042486  0.32765358  0.31128996     0.07700
C1133       C  0.17023422  0.33394635  0.32188617    -0.05400
H1134       H  0.17118231  0.30823487  0.30870040     0.08300
H1135       H  0.17011763  0.34349165  0.32294915     0.09500
Cu1136     Cu  0.17148123  0.30010665  0.33658910     0.44200
Cu1137     Cu  0.17046356  0.32919943  0.34913369     0.42000
Cu1138     Cu  0.17242136  0.30243632  0.36825368     0.43900
N1139       N  0.17339767  0.28567568  0.34757123    -0.34100
N1140       N  0.17384399  0.28629187  0.35928163    -0.28400
C1141       C  0.17585456  0.27530409  0.36360977    -0.04500
C1142       C  0.17674917  0.26752302  0.35408575     0.07800
C1143       C  0.17510653  0.27441838  0.34410198     0.01600
H1144       H  0.17701650  0.27321257  0.37291190     0.09200
H1145       H  0.17547910  0.27152540  0.33494393     0.08300
N1146       N  0.17112931  0.31985521  0.37445634    -0.35500
N1147       N  0.17055678  0.32941534  0.36763173    -0.27700
C1148       C  0.16990762  0.33911663  0.37459280    -0.03000
C1149       C  0.17002142  0.33554108  0.38636760     0.05600
C1150       C  0.17079462  0.32326637  0.38590894     0.03700
H1151       H  0.16944253  0.34813026  0.37130136     0.08800
H1152       H  0.17099495  0.31722334  0.39337433     0.07700
N1153       N  0.56005520  0.11628931  0.40607274    -0.26700
N1154       N  0.55366074  0.11560148  0.39624425    -0.34600
C1155       C  0.56094632  0.11643309  0.38680930     0.01600
C1156       C  0.57252229  0.11760669  0.39084456     0.07700
C1157       C  0.57159031  0.11748379  0.40312800    -0.05400
H1158       H  0.55801620  0.11619491  0.37766452     0.08300
H1159       H  0.57878166  0.11805561  0.40947454     0.09500
Cu1160     Cu  0.53531826  0.11336213  0.39592819     0.44200
Cu1161     Cu  0.55278840  0.11564631  0.42304315     0.42000
Cu1162     Cu  0.52055701  0.11184248  0.42410968     0.43900
N1163       N  0.51699352  0.11171875  0.39763333    -0.34100
N1164       N  0.51150909  0.11119118  0.40799959    -0.28400
C1165       C  0.49968766  0.11088457  0.40613507    -0.04500
C1166       C  0.49760831  0.11127700  0.39398329     0.07800
C1167       C  0.50882637  0.11176288  0.38891051     0.01600
H1168       H  0.49309168  0.11066985  0.41312804     0.09200
H1169       H  0.51088610  0.11259765  0.37956031     0.08300
N1170       N  0.53135430  0.11353230  0.43902306    -0.35500
N1171       N  0.54300192  0.11507334  0.43870059    -0.27700
C1172       C  0.54703963  0.11654141  0.44987296    -0.03000
C1173       C  0.53747273  0.11589169  0.45760753     0.05600
C1174       C  0.52770877  0.11390335  0.45038522     0.03700
H1175       H  0.55620349  0.11832100  0.45215145     0.08800
H1176       H  0.51855032  0.11302368  0.45317165     0.07700
N1177       N  0.43935171  0.47345014  0.12780536    -0.26700
N1178       N  0.42907802  0.47913874  0.12753828    -0.34600
C1179       C  0.42025465  0.47117255  0.12630650     0.01600
C1180       C  0.42519178  0.45992119  0.12576897     0.07700
C1181       C  0.43732861  0.46170767  0.12673168    -0.05400
H1182       H  0.41091284  0.47339434  0.12594683     0.08300
H1183       H  0.44416110  0.45495339  0.12690920     0.09500
Cu1184     Cu  0.42744606  0.49746930  0.12918680     0.44200
Cu1185     Cu  0.45557192  0.48197715  0.13003928     0.42000
Cu1186     Cu  0.45458109  0.51409273  0.13378212     0.43900
N1187       N  0.42798421  0.51585341  0.13096608    -0.34100
N1188       N  0.43791867  0.52194221  0.13242712    -0.28400
C1189       C  0.43527297  0.53357300  0.13317140    -0.04500
C1190       C  0.42305239  0.53491203  0.13226882     0.07800
C1191       C  0.41875210  0.52344677  0.13087731     0.01600
H1192       H  0.44178999  0.54054237  0.13432728     0.09200
H1193       H  0.40955383  0.52078250  0.13006038     0.08300
N1194       N  0.47012713  0.50414048  0.13435744    -0.35500
N1195       N  0.47048837  0.49252153  0.13270027    -0.27700
C1196       C  0.48187991  0.48893242  0.13286311    -0.03000
C1197       C  0.48909112  0.49872576  0.13479322     0.05600
C1198       C  0.48128379  0.50821058  0.13575659     0.03700
H1199       H  0.48472063  0.47987563  0.13137243     0.08800
H1200       H  0.48353479  0.51743755  0.13720436     0.07700
N1201       N  0.16320481  0.40074046  0.47381193    -0.26700
N1202       N  0.16488376  0.39097061  0.48009369    -0.34600
C1203       C  0.16582798  0.38166697  0.47265916     0.01600
C1204       C  0.16467987  0.38574959  0.46111482     0.07700
C1205       C  0.16302636  0.39790163  0.46219626    -0.05400
H1206       H  0.16728897  0.37259330  0.47545603     0.08300
H1207       H  0.16170248  0.40420744  0.45507072     0.09500
Cu1208     Cu  0.16547052  0.39066628  0.49850356     0.44200
Cu1209     Cu  0.16122729  0.41742632  0.48144992     0.42000
Cu1210     Cu  0.16041315  0.41826987  0.51395906     0.43900
N1211       N  0.16426970  0.39197523  0.51683867    -0.34100
N1212       N  0.16217960  0.40200198  0.52257675    -0.28400
C1213       C  0.16134427  0.39965945  0.53428831    -0.04500
C1214       C  0.16299598  0.38756234  0.53598867     0.07800
C1215       C  0.16488034  0.38302598  0.52470734     0.01600
H1216       H  0.15946072  0.40623893  0.54103559     0.09200
H1217       H  0.16648517  0.37384963  0.52236129     0.08300
N1218       N  0.15937363  0.43321572  0.50311090    -0.35500
N1219       N  0.15968444  0.43292372  0.49136242    -0.27700
C1220       C  0.15916720  0.44411050  0.48717487    -0.03000
C1221       C  0.15851422  0.45182569  0.49673212     0.05600
C1222       C  0.15864541  0.44459338  0.50668178     0.03700
H1223       H  0.15952074  0.44646403  0.47786594     0.08800
H1224       H  0.15835915  0.44740886  0.51586692     0.07700
N1225       N  0.90596611  0.40787972  0.47378796    -0.26700
N1226       N  0.90394535  0.39768919  0.47928671    -0.34600
C1227       C  0.90396373  0.38885657  0.47124052     0.01600
C1228       C  0.90608186  0.39366790  0.46012793     0.07700
C1229       C  0.90727728  0.40576271  0.46207536    -0.05400
H1230       H  0.90249213  0.37959414  0.47332273     0.08300
H1231       H  0.90908849  0.41251176  0.45548103     0.09500
Cu1232     Cu  0.90125517  0.39597228  0.49748894     0.44200
Cu1233     Cu  0.90697558  0.42422333  0.48246324     0.42000
Cu1234     Cu  0.90157170  0.42315404  0.51415787     0.43900
N1235       N  0.89913658  0.39663530  0.51583012    -0.34100
N1236       N  0.89931335  0.40667851  0.52189548    -0.28400
C1237       C  0.89817955  0.40427229  0.53352941    -0.04500
C1238       C  0.89718374  0.39210189  0.53491180     0.07800
C1239       C  0.89781153  0.38754063  0.52347452     0.01600
H1240       H  0.89833300  0.41089579  0.54049226     0.09200
H1241       H  0.89741665  0.37829205  0.52090037     0.08300
N1242       N  0.90502999  0.43865468  0.50497661    -0.35500
N1243       N  0.90718560  0.43914895  0.49344262    -0.27700
C1244       C  0.90918423  0.45054627  0.49040112    -0.03000
C1245       C  0.90820813  0.45752753  0.50052045     0.05600
C1246       C  0.90555054  0.44965712  0.50956367     0.03700
H1247       H  0.91115246  0.45353397  0.48148282     0.08800
H1248       H  0.90394343  0.45178493  0.51879591     0.07700
N1249       N  0.50575298  0.87704769  0.41243821    -0.26700
N1250       N  0.51110330  0.87705575  0.40198172    -0.34600
C1251       C  0.50282372  0.87630686  0.39340549     0.01600
C1252       C  0.49172513  0.87574121  0.39870840     0.07700
C1253       C  0.49393378  0.87625901  0.41079541    -0.05400
H1254       H  0.50475156  0.87599582  0.38399746     0.08300
H1255       H  0.48746215  0.87576214  0.41788471     0.09500
Cu1256     Cu  0.52946081  0.87717356  0.39985238     0.44200
Cu1257     Cu  0.51483042  0.87736570  0.42844331     0.42000
Cu1258     Cu  0.54665676  0.87339795  0.42693451     0.43900
N1259       N  0.54788467  0.87573607  0.40021265    -0.34100
N1260       N  0.55407124  0.87418565  0.41007603    -0.28400
C1261       C  0.56565173  0.87324438  0.40730902    -0.04500
C1262       C  0.56686480  0.87424979  0.39511594     0.07800
C1263       C  0.55540009  0.87582852  0.39090197     0.01600
H1264       H  0.57266688  0.87176876  0.41370503     0.09200
H1265       H  0.55270960  0.87691718  0.38174488     0.08300
N1266       N  0.53725475  0.87431248  0.44276500    -0.35500
N1267       N  0.52568997  0.87625059  0.44325621    -0.27700
C1268       C  0.52234482  0.87701555  0.45468552    -0.03000
C1269       C  0.53224161  0.87533305  0.46180992     0.05600
C1270       C  0.54154659  0.87361903  0.45390033     0.03700
H1271       H  0.51335153  0.87877016  0.45757999     0.08800
H1272       H  0.55076574  0.87198059  0.45605229     0.07700
N1273       N  0.43278410  0.46859377  0.87309495    -0.26700
N1274       N  0.42290387  0.47467719  0.87121871    -0.34600
C1275       C  0.41384124  0.46709325  0.86959177     0.01600
C1276       C  0.41807746  0.45561320  0.87057173     0.07700
C1277       C  0.43016642  0.45689717  0.87274985    -0.05400
H1278       H  0.40477332  0.46977222  0.86787201     0.08300
H1279       H  0.43654199  0.44985255  0.87417971     0.09500
Cu1280     Cu  0.42160629  0.49301677  0.87116113     0.44200
Cu1281     Cu  0.44930808  0.47667608  0.87612760     0.42000
Cu1282     Cu  0.44845574  0.50911161  0.87517820     0.43900
N1283       N  0.42225214  0.51138623  0.87100660    -0.34100
N1284       N  0.43228044  0.51734162  0.87220895    -0.28400
C1285       C  0.42997340  0.52903486  0.87155380    -0.04500
C1286       C  0.41784917  0.53054953  0.86998818     0.07800
C1287       C  0.41324759  0.51912592  0.86968724     0.01600
H1288       H  0.43663964  0.53592312  0.87222717     0.09200
H1289       H  0.40401941  0.51661554  0.86875709     0.08300
N1290       N  0.46374860  0.49932528  0.87812999    -0.35500
N1291       N  0.46424227  0.48758767  0.87846225    -0.27700
C1292       C  0.47567083  0.48430416  0.87998917    -0.03000
C1293       C  0.48265303  0.49446124  0.88059568     0.05600
C1294       C  0.47474706  0.50378205  0.87944078     0.03700
H1295       H  0.47873419  0.47520186  0.88023417     0.08800
H1296       H  0.47686471  0.51315457  0.87929264     0.07700
N1297       N  0.05179715  0.62250653  0.91060105    -0.26700
N1298       N  0.04566357  0.62357548  0.90065466    -0.34600
C1299       C  0.05325047  0.62397445  0.89143746     0.01600
C1300       C  0.06471349  0.62310894  0.89580958     0.07700
C1301       C  0.06344667  0.62217376  0.90799794    -0.05400
H1302       H  0.05062691  0.62503669  0.88225524     0.08300
H1303       H  0.07046990  0.62137090  0.91450775     0.09500
Cu1304     Cu  0.02731535  0.62491459  0.90018779     0.44200
Cu1305     Cu  0.04405164  0.62199170  0.92723357     0.42000
Cu1306     Cu  0.01199098  0.62566399  0.92855666     0.43900
N1307       N  0.00912214  0.62707971  0.90194197    -0.34100
N1308       N  0.00351121  0.62759844  0.91224803    -0.28400
C1309       C  0.99180752  0.62898622  0.91021318    -0.04500
C1310       C  0.98995301  0.62925372  0.89803054     0.07800
C1311       C  0.00115650  0.62803161  0.89310159     0.01600
H1312       H  0.98512767  0.62956019  0.91709948     0.09200
H1313       H  0.00333738  0.62755085  0.88375860     0.08300
N1314       N  0.02273628  0.62326767  0.94339971    -0.35500
N1315       N  0.03441444  0.62206915  0.94285834    -0.27700
C1316       C  0.03877229  0.62101423  0.95392184    -0.03000
C1317       C  0.02938771  0.62151341  0.96181205     0.05600
C1318       C  0.01934646  0.62291700  0.95485955     0.03700
H1319       H  0.04808284  0.61996991  0.95605699     0.08800
H1320       H  0.01027912  0.62380111  0.95791743     0.07700
N1321       N  0.05154326  0.36075793  0.90326039    -0.26700
N1322       N  0.04536579  0.36067317  0.89327965    -0.34600
C1323       C  0.05286492  0.35941595  0.88407112     0.01600
C1324       C  0.06432099  0.35865703  0.88846385     0.07700
C1325       C  0.06315010  0.35954669  0.90067472    -0.05400
H1326       H  0.05018376  0.35919354  0.87484739     0.08300
H1327       H  0.07020496  0.35933684  0.90719701     0.09500
Cu1328     Cu  0.02703210  0.36229622  0.89261663     0.44200
Cu1329     Cu  0.04383462  0.36283992  0.91982967     0.42000
Cu1330     Cu  0.01155133  0.36574206  0.92055966     0.43900
N1331       N  0.00870364  0.36354135  0.89402647    -0.34100
N1332       N  0.00298349  0.36460845  0.90423513    -0.28400
C1333       C  0.99122426  0.36504542  0.90207160    -0.04500
C1334       C  0.98949453  0.36428684  0.88991754     0.07800
C1335       C  0.00076421  0.36334544  0.88510556     0.01600
H1336       H  0.98444885  0.36601930  0.90882229     0.09200
H1337       H  0.00302517  0.36255295  0.87579686     0.08300
N1338       N  0.02238146  0.36688790  0.93547778    -0.35500
N1339       N  0.03407778  0.36579446  0.93514459    -0.27700
C1340       C  0.03841003  0.36684286  0.94621164    -0.03000
C1341       C  0.02901445  0.36865533  0.95392125     0.05600
C1342       C  0.01897709  0.36865742  0.94680746     0.03700
H1343       H  0.04773273  0.36626687  0.94848714     0.08800
H1344       H  0.00985588  0.36964581  0.94967629     0.07700
N1345       N  0.93794238  0.02686291  0.36957416    -0.26700
N1346       N  0.92774463  0.02111650  0.37043595    -0.34600
C1347       C  0.91875824  0.02896021  0.36975025     0.01600
C1348       C  0.92351042  0.04023101  0.36839123     0.07700
C1349       C  0.93571675  0.03853802  0.36830191    -0.05400
H1350       H  0.90945350  0.02665056  0.37041579     0.08300
H1351       H  0.94248874  0.04530254  0.36744853     0.09500
Cu1352     Cu  0.92666154  0.00288270  0.37263996     0.44200
Cu1353     Cu  0.95433950  0.01842245  0.37060517     0.42000
Cu1354     Cu  0.95442550  0.98632858  0.37485031     0.43900
N1355       N  0.92766532  0.98455740  0.37390033    -0.34100
N1356       N  0.93769751  0.97845968  0.37449615    -0.28400
C1357       C  0.93511352  0.96677850  0.37459974    -0.04500
C1358       C  0.92289220  0.96553874  0.37413266     0.07800
C1359       C  0.91846220  0.97695731  0.37371287     0.01600
H1360       H  0.94163172  0.95972614  0.37493750     0.09200
H1361       H  0.90923070  0.97954837  0.37307550     0.08300
N1362       N  0.96974853  0.99666037  0.37424463    -0.35500
N1363       N  0.96965722  0.00828216  0.37253970    -0.27700
C1364       C  0.98090529  0.01230430  0.37255128    -0.03000
C1365       C  0.98848729  0.00279933  0.37440154     0.05600
C1366       C  0.98108471  0.99300704  0.37542604     0.03700
H1367       H  0.98338315  0.02150562  0.37134358     0.08800
H1368       H  0.98372691  0.98392154  0.37707497     0.07700
N1369       N  0.93823123  0.02290852  0.63117411    -0.26700
N1370       N  0.92793491  0.01727925  0.63176446    -0.34600
C1371       C  0.91915228  0.02529110  0.63281723     0.01600
C1372       C  0.92409845  0.03654183  0.63285113     0.07700
C1373       C  0.93623836  0.03469761  0.63183899    -0.05400
H1374       H  0.90980917  0.02309274  0.63331185     0.08300
H1375       H  0.94307615  0.04142906  0.63128294     0.09500
Cu1376     Cu  0.92602792  0.99899271  0.63048535     0.44200
Cu1377     Cu  0.95436883  0.01412873  0.62892208     0.42000
Cu1378     Cu  0.95266631  0.98174221  0.62650272     0.43900
N1379       N  0.92599152  0.98064335  0.62875295    -0.34100
N1380       N  0.93575836  0.97425225  0.62744747    -0.28400
C1381       C  0.93275802  0.96268376  0.62685689    -0.04500
C1382       C  0.92050951  0.96177573  0.62776653     0.07800
C1383       C  0.91652678  0.97334247  0.62894600     0.01600
H1384       H  0.93901913  0.95546750  0.62583717     0.09200
H1385       H  0.90742474  0.97622358  0.63006057     0.08300
N1386       N  0.96843807  0.99141146  0.62558806    -0.35500
N1387       N  0.96904825  0.00311584  0.62649254    -0.27700
C1388       C  0.98049670  0.00648301  0.62565468    -0.03000
C1389       C  0.98744773  0.99644353  0.62414365     0.05600
C1390       C  0.97948738  0.98705559  0.62413192     0.03700
H1391       H  0.98354261  0.01558410  0.62610833     0.08800
H1392       H  0.98159149  0.97772189  0.62328795     0.07700
N1393       N  0.40963363  0.90194276  0.03126244    -0.26700
N1394       N  0.40794387  0.89174407  0.02570437    -0.34600
C1395       C  0.40704091  0.88298403  0.03374325     0.01600
C1396       C  0.40826563  0.88781735  0.04497704     0.07700
C1397       C  0.40993723  0.89989082  0.04305100    -0.05400
H1398       H  0.40523649  0.87380089  0.03156657     0.08300
H1399       H  0.41104338  0.90671608  0.04972491     0.09500
Cu1400     Cu  0.40645917  0.89007043  0.00749294     0.44200
Cu1401     Cu  0.41041429  0.91816263  0.02236792     0.42000
Cu1402     Cu  0.40772670  0.91670901  0.98997511     0.43900
N1403       N  0.40557915  0.89013742  0.98916840    -0.34100
N1404       N  0.40612773  0.89990015  0.98268594    -0.28400
C1405       C  0.40529311  0.89694862  0.97114095    -0.04500
C1406       C  0.40416126  0.88473081  0.97035079     0.07800
C1407       C  0.40437233  0.88070951  0.98195210     0.01600
H1408       H  0.40547856  0.90322714  0.96387056     0.09200
H1409       H  0.40357128  0.87161577  0.98494335     0.08300
N1410       N  0.40879655  0.93238468  0.99954466    -0.35500
N1411       N  0.40976779  0.93295326  0.01124591    -0.27700
C1412       C  0.41008211  0.94443952  0.01452618    -0.03000
C1413       C  0.40928093  0.95142175  0.00442634     0.05600
C1414       C  0.40848629  0.94346400  0.99509825     0.03700
H1415       H  0.41075726  0.94749560  0.02362097     0.08800
H1416       H  0.40780518  0.94556191  0.98574256     0.07700
N1417       N  0.65225874  0.90460501  0.98424646    -0.26700
N1418       N  0.65470358  0.89470325  0.99005149    -0.34600
C1419       C  0.65646832  0.88590694  0.98217941     0.01600
C1420       C  0.65501341  0.89044793  0.97084726     0.07700
C1421       C  0.65237634  0.90235403  0.97249873    -0.05400
H1422       H  0.65854023  0.87683014  0.98454256     0.08300
H1423       H  0.65044237  0.90884399  0.96568588     0.09500
Cu1424     Cu  0.65501955  0.89339044  0.00841139     0.44200
Cu1425     Cu  0.64865525  0.92058379  0.99270763     0.42000
Cu1426     Cu  0.64804217  0.91998410  0.02502778     0.43900
N1427       N  0.65435994  0.89404512  0.02679936    -0.34100
N1428       N  0.65174949  0.90374985  0.03287384    -0.28400
C1429       C  0.65235539  0.90131727  0.04455143    -0.04500
C1430       C  0.65551152  0.88951218  0.04589373     0.07800
C1431       C  0.65668363  0.88517406  0.03444836     0.01600
H1432       H  0.65074801  0.90770839  0.05154832     0.09200
H1433       H  0.65929622  0.87629518  0.03186714     0.08300
N1434       N  0.64568365  0.93525564  0.01502359    -0.35500
N1435       N  0.64592918  0.93544495  0.00327821    -0.27700
C1436       C  0.64493085  0.94674048  0.99956522    -0.03000
C1437       C  0.64405306  0.95402161  0.00943197     0.05600
C1438       C  0.64452304  0.94643860  0.01908714     0.03700
H1439       H  0.64522435  0.94949280  0.99036357     0.08800
H1440       H  0.64455817  0.94890731  0.02837330     0.07700
N1441       N  0.05961560  0.36606221  0.09350746    -0.26700
N1442       N  0.05348341  0.36537690  0.10350681    -0.34600
C1443       C  0.06102134  0.36407825  0.11265726     0.01600
C1444       C  0.07248232  0.36397381  0.10825202     0.07700
C1445       C  0.07126246  0.36522042  0.09606772    -0.05400
H1446       H  0.05833738  0.36332140  0.12185610     0.08300
H1447       H  0.07833056  0.36569641  0.08956555     0.09500
Cu1448     Cu  0.03522342  0.36668471  0.10460338     0.44200
Cu1449     Cu  0.05187173  0.36852014  0.07691265     0.42000
Cu1450     Cu  0.02002333  0.37407444  0.07781053     0.43900
N1451       N  0.01708687  0.36922008  0.10377647    -0.34100
N1452       N  0.01147269  0.37215584  0.09390683    -0.28400
C1453       C  0.99984627  0.37350357  0.09627348    -0.04500
C1454       C  0.99810736  0.37129472  0.10822774     0.07800
C1455       C  0.00920705  0.36858993  0.11271474     0.01600
H1456       H  0.99318114  0.37593380  0.08979432     0.09200
H1457       H  0.01142341  0.36653724  0.12183368     0.08300
N1458       N  0.02999917  0.37390646  0.06243240    -0.35500
N1459       N  0.04151806  0.37165128  0.06193222    -0.27700
C1460       C  0.04489811  0.37139939  0.05045511    -0.03000
C1461       C  0.03500501  0.37358152  0.04345884     0.05600
C1462       C  0.02576283  0.37518615  0.05137061     0.03700
H1463       H  0.05379849  0.36939812  0.04742137     0.08800
H1464       H  0.01653773  0.37684453  0.04923929     0.07700
N1465       N  0.05617840  0.62640757  0.10127565    -0.26700
N1466       N  0.05050015  0.62620721  0.11154655    -0.34600
C1467       C  0.05841246  0.62714444  0.12042329     0.01600
C1468       C  0.06963526  0.62797298  0.11550529     0.07700
C1469       C  0.06791136  0.62744367  0.10334015    -0.05400
H1470       H  0.05614651  0.62739210  0.12975780     0.08300
H1471       H  0.07464590  0.62803404  0.09650772     0.09500
Cu1472     Cu  0.03224699  0.62531233  0.11300031     0.44200
Cu1473     Cu  0.04745288  0.62547124  0.08508647     0.42000
Cu1474     Cu  0.01515448  0.62164629  0.08609730     0.43900
N1475       N  0.01392781  0.62568588  0.11247781    -0.34100
N1476       N  0.00757282  0.62438938  0.10269083    -0.28400
C1477       C  0.99598331  0.62550952  0.10543528    -0.04500
C1478       C  0.99506504  0.62757586  0.11753240     0.07800
C1479       C  0.00660839  0.62763712  0.12168830     0.01600
H1480       H  0.98877521  0.62485734  0.09911062     0.09200
H1481       H  0.00949471  0.62912966  0.13073278     0.08300
N1482       N  0.02521722  0.62107380  0.07064116    -0.35500
N1483       N  0.03680571  0.62297613  0.07026700    -0.27700
C1484       C  0.04041124  0.62284462  0.05888645    -0.03000
C1485       C  0.03066575  0.62064718  0.05170940     0.05600
C1486       C  0.02118855  0.61952261  0.05950074     0.03700
H1487       H  0.04944935  0.62444366  0.05604714     0.08800
H1488       H  0.01199982  0.61785027  0.05724999     0.07700
N1489       N  0.12711282  0.97805020  0.38250673    -0.26700
N1490       N  0.13765804  0.98313937  0.38339666    -0.34600
C1491       C  0.14611169  0.97473140  0.38267081     0.01600
C1492       C  0.14060655  0.96382723  0.38126394     0.07700
C1493       C  0.12856113  0.96625652  0.38123619    -0.05400
H1494       H  0.15556186  0.97646229  0.38278754     0.08300
H1495       H  0.12140707  0.95998376  0.37989014     0.09500
Cu1496     Cu  0.14002274  0.00137697  0.38445122     0.44200
Cu1497     Cu  0.11136241  0.98756128  0.38196184     0.42000
Cu1498     Cu  0.11345730  0.01972931  0.38178461     0.43900
N1499       N  0.14023426  0.01979207  0.38395169    -0.34100
N1500       N  0.13062802  0.02647606  0.38292521    -0.28400
C1501       C  0.13393119  0.03795763  0.38254654    -0.04500
C1502       C  0.14620348  0.03853174  0.38334633     0.07800
C1503       C  0.14988063  0.02683474  0.38422419     0.01600
H1504       H  0.12784109  0.04534191  0.38172328     0.09200
H1505       H  0.15892729  0.02365373  0.38479397     0.08300
N1506       N  0.09746470  0.01050978  0.38082299    -0.35500
N1507       N  0.09680326  0.99878462  0.38093263    -0.27700
C1508       C  0.08533974  0.99551184  0.38037756    -0.03000
C1509       C  0.07839797  0.00563526  0.37992300     0.05600
C1510       C  0.08638613  0.01500411  0.38019225     0.03700
H1511       H  0.08227214  0.98640779  0.38033907     0.08800
H1512       H  0.08429838  0.02437959  0.38012978     0.07700
N1513       N  0.12850071  0.96890839  0.61937950    -0.26700
N1514       N  0.13855553  0.97484758  0.62075447    -0.34600
C1515       C  0.14755726  0.96705092  0.62181118     0.01600
C1516       C  0.14299852  0.95564180  0.62102866     0.07700
C1517       C  0.13088210  0.95719289  0.61946706    -0.05400
H1518       H  0.15672428  0.96950966  0.62332716     0.08300
H1519       H  0.12424326  0.95029824  0.61859058     0.09500
Cu1520     Cu  0.13969781  0.99328132  0.62170973     0.44200
Cu1521     Cu  0.11179218  0.97681260  0.61818638     0.42000
Cu1522     Cu  0.11140396  0.00821227  0.62368718     0.43900
N1523       N  0.13793405  0.01155079  0.62390740    -0.34100
N1524       N  0.12753377  0.01682128  0.62521313    -0.28400
C1525       C  0.12923095  0.02849868  0.62692897    -0.04500
C1526       C  0.14130313  0.03083097  0.62647620     0.07800
C1527       C  0.14654653  0.01982583  0.62454272     0.01600
H1528       H  0.12213998  0.03482048  0.62834757     0.09200
H1529       H  0.15591812  0.01797193  0.62352473     0.08300
N1530       N  0.09619879  0.99840637  0.62060522    -0.35500
N1531       N  0.09623289  0.98685207  0.61854650    -0.27700
C1532       C  0.08492119  0.98312919  0.61733680    -0.03000
C1533       C  0.07744539  0.99283990  0.61866945     0.05600
C1534       C  0.08493267  0.00236093  0.62071142     0.03700
H1535       H  0.08231454  0.97400610  0.61582546     0.08800
H1536       H  0.08236455  0.01144048  0.62251538     0.07700
N1537       N  0.41059076  0.09209783  0.02526538    -0.26700
N1538       N  0.40846778  0.10214073  0.01957687    -0.34600
C1539       C  0.40771487  0.11100875  0.02754373     0.01600
C1540       C  0.40949710  0.10633001  0.03878560     0.07700
C1541       C  0.41133638  0.09431320  0.03697393    -0.05400
H1542       H  0.40571739  0.12014298  0.02533900     0.08300
H1543       H  0.41291226  0.08761715  0.04367809     0.09500
Cu1544     Cu  0.40631047  0.10325971  0.00129595     0.44200
Cu1545     Cu  0.41142882  0.07568317  0.01706165     0.42000
Cu1546     Cu  0.40569297  0.07514326  0.98553008     0.43900
N1547       N  0.40410964  0.10177124  0.98304210    -0.34100
N1548       N  0.40359484  0.09151138  0.97735839    -0.28400
C1549       C  0.40193378  0.09358074  0.96571386    -0.04500
C1550       C  0.40150300  0.10574892  0.96391421     0.07800
C1551       C  0.40293145  0.11064167  0.97513183     0.01600
H1552       H  0.40113231  0.08670499  0.95905139     0.09200
H1553       H  0.40326187  0.11997632  0.97737469     0.08300
N1554       N  0.40834806  0.05998771  0.99564488    -0.35500
N1555       N  0.41042994  0.06021123  0.00719800    -0.27700
C1556       C  0.41132490  0.04900880  0.01122055    -0.03000
C1557       C  0.40975912  0.04136203  0.00173052     0.05600
C1558       C  0.40792118  0.04862213  0.99198638     0.03700
H1559       H  0.41288968  0.04660985  0.02039096     0.08800
H1560       H  0.40614825  0.04584728  0.98296164     0.07700
N1561       N  0.65173021  0.09554017  0.02765898    -0.26700
N1562       N  0.65401739  0.10502948  0.02114137    -0.34600
C1563       C  0.65543287  0.11445857  0.02833522     0.01600
C1564       C  0.65397602  0.11072364  0.03995497     0.07700
C1565       C  0.65165322  0.09867249  0.03919041    -0.05400
H1566       H  0.65742697  0.12336403  0.02532899     0.08300
H1567       H  0.64993148  0.09264352  0.04647276     0.09500
Cu1568     Cu  0.65500416  0.10470992  0.00278093     0.44200
Cu1569     Cu  0.64876715  0.07882366  0.02049487     0.42000
Cu1570     Cu  0.65059313  0.07632143  0.98830033     0.43900
N1571       N  0.65517983  0.10238690  0.98453838    -0.34100
N1572       N  0.65360424  0.09204887  0.97918964    -0.28400
C1573       C  0.65404813  0.09368575  0.96735178    -0.04500
C1574       C  0.65594545  0.10563511  0.96519238     0.07800
C1575       C  0.65663229  0.11086922  0.97627828     0.01600
H1576       H  0.65287146  0.08674017  0.96081331     0.09200
H1577       H  0.65801583  0.12018205  0.97820143     0.08300
N1578       N  0.64759712  0.06206377  0.99957970    -0.35500
N1579       N  0.64671570  0.06300918  0.01125309    -0.27700
C1580       C  0.64501117  0.05214749  0.01591055    -0.03000
C1581       C  0.64493326  0.04392216  0.00674946     0.05600
C1582       C  0.64658139  0.05056315  0.99652134     0.03700
H1583       H  0.64413161  0.05035970  0.02531056     0.08800
H1584       H  0.64736595  0.04724811  0.98753883     0.07700
N1585       N  0.50598467  0.87317552  0.60140731    -0.26700
N1586       N  0.51195749  0.87149898  0.61137089    -0.34600
C1587       C  0.50430405  0.86955532  0.62029415     0.01600
C1588       C  0.49292340  0.87000670  0.61577630     0.07700
C1589       C  0.49427836  0.87228809  0.60375099    -0.05400
H1590       H  0.50685473  0.86776609  0.62938495     0.08300
H1591       H  0.48729764  0.87319345  0.59721002     0.09500
Cu1592     Cu  0.53019304  0.87157839  0.61259334     0.44200
Cu1593     Cu  0.51435588  0.87624741  0.58522196     0.42000
Cu1594     Cu  0.54706411  0.87722806  0.58630556     0.43900
N1595       N  0.54846411  0.87208817  0.61243099    -0.34100
N1596       N  0.55481910  0.87432098  0.60282396    -0.28400
C1597       C  0.56641965  0.87405125  0.60573728    -0.04500
C1598       C  0.56734096  0.87151767  0.61776468     0.07800
C1599       C  0.55576737  0.87030776  0.62168315     0.01600
H1600       H  0.57363502  0.87560748  0.59958034     0.09200
H1601       H  0.55285157  0.86820584  0.63059494     0.08300
N1602       N  0.53703182  0.87848008  0.57083039    -0.35500
N1603       N  0.52528201  0.87811149  0.57042448    -0.27700
C1604       C  0.52178940  0.87841399  0.55899517    -0.03000
C1605       C  0.53179426  0.87896466  0.55185830     0.05600
C1606       C  0.54128672  0.87902751  0.55967456     0.03700
H1607       H  0.51265110  0.87783734  0.55607919     0.08800
H1608       H  0.55062728  0.87917724  0.55741229     0.07700
N1609       N  0.55626139  0.12460265  0.59852212    -0.26700
N1610       N  0.55017112  0.12397972  0.60854748    -0.34600
C1611       C  0.55776791  0.12455974  0.61775260     0.01600
C1612       C  0.56919353  0.12561216  0.61330600     0.07700
C1613       C  0.56789091  0.12559926  0.60107944    -0.05400
H1614       H  0.55515924  0.12429334  0.62699765     0.08300
H1615       H  0.57486894  0.12643805  0.59452094     0.09500
Cu1616     Cu  0.53178926  0.12272426  0.60925177     0.44200
Cu1617     Cu  0.54849144  0.12420177  0.58182192     0.42000
Cu1618     Cu  0.51639690  0.12140437  0.58102647     0.43900
N1619       N  0.51343326  0.12214315  0.60762006    -0.34100
N1620       N  0.50779210  0.12166350  0.59732955    -0.28400
C1621       C  0.49600419  0.12180406  0.59934077    -0.04500
C1622       C  0.49414591  0.12240197  0.61148509     0.07800
C1623       C  0.50539337  0.12258967  0.61644467     0.01600
H1624       H  0.48929120  0.12159078  0.59246690     0.09200
H1625       H  0.50757280  0.12325626  0.62578008     0.08300
N1626       N  0.52699967  0.12213390  0.56595920    -0.35500
N1627       N  0.53869396  0.12319848  0.56624902    -0.27700
C1628       C  0.54286575  0.12339913  0.55505297    -0.03000
C1629       C  0.53334251  0.12243465  0.54732465     0.05600
C1630       C  0.52342269  0.12166159  0.55457010     0.03700
H1631       H  0.55216667  0.12405635  0.55271604     0.08800
H1632       H  0.51426279  0.12086578  0.55177516     0.07700
N1633       N  0.62381053  0.52209099  0.88012361    -0.26700
N1634       N  0.63386847  0.51600895  0.88011766    -0.34600
C1635       C  0.64306434  0.52364085  0.88035214     0.01600
C1636       C  0.63865179  0.53511375  0.88052190     0.07700
C1637       C  0.62639279  0.53377635  0.88036874    -0.05400
H1638       H  0.65230947  0.52102227  0.88015184     0.08300
H1639       H  0.61982726  0.54079320  0.88039429     0.09500
Cu1640     Cu  0.63489441  0.49760022  0.87934388     0.44200
Cu1641     Cu  0.60700367  0.51419016  0.87968760     0.42000
Cu1642     Cu  0.60718100  0.48189530  0.87852310     0.43900
N1643       N  0.63374416  0.47925544  0.87771624    -0.34100
N1644       N  0.62352595  0.47349075  0.87730023    -0.28400
C1645       C  0.62568174  0.46180054  0.87606888    -0.04500
C1646       C  0.63786565  0.46010494  0.87570645     0.07800
C1647       C  0.64268783  0.47138242  0.87678123     0.01600
H1648       H  0.61887807  0.45504334  0.87542984     0.09200
H1649       H  0.65201713  0.47368674  0.87694177     0.08300
N1650       N  0.59184287  0.49200742  0.87990230    -0.35500
N1651       N  0.59164629  0.50374809  0.88006565    -0.27700
C1652       C  0.58025380  0.50737985  0.88073514    -0.03000
C1653       C  0.57293008  0.49744791  0.88107454     0.05600
C1654       C  0.58065341  0.48788371  0.88058030     0.03700
H1655       H  0.57749661  0.51658156  0.88084936     0.08800
H1656       H  0.57832661  0.47856317  0.88072369     0.07700
N1657       N  0.63068437  0.52064833  0.13369711    -0.26700
N1658       N  0.64053890  0.51431987  0.13288572    -0.34600
C1659       C  0.64996905  0.52162994  0.13344522     0.01600
C1660       C  0.64592818  0.53317166  0.13479362     0.07700
C1661       C  0.63362379  0.53217631  0.13494168    -0.05400
H1662       H  0.65910771  0.51873722  0.13278569     0.08300
H1663       H  0.62725853  0.53930819  0.13589117     0.09500
Cu1664     Cu  0.64084171  0.49600226  0.13132649     0.44200
Cu1665     Cu  0.61372243  0.51322227  0.13261629     0.42000
Cu1666     Cu  0.61274041  0.48102073  0.12871255     0.43900
N1667       N  0.63913875  0.47771520  0.13046765    -0.34100
N1668       N  0.62885913  0.47215836  0.12937191    -0.28400
C1669       C  0.63079030  0.46036069  0.12936792    -0.04500
C1670       C  0.64288968  0.45840954  0.13058049     0.07800
C1671       C  0.64787102  0.46963295  0.13125964     0.01600
H1672       H  0.62387948  0.45371824  0.12866588     0.09200
H1673       H  0.65715593  0.47177210  0.13253151     0.08300
N1674       N  0.59780024  0.49175737  0.12937112    -0.35500
N1675       N  0.59807519  0.50341088  0.13086440    -0.27700
C1676       C  0.58683507  0.50746988  0.13144218    -0.03000
C1677       C  0.57914358  0.49791528  0.13028203     0.05600
C1678       C  0.58642652  0.48811634  0.12896951     0.03700
H1679       H  0.58443236  0.51666928  0.13282856     0.08800
H1680       H  0.58366637  0.47894616  0.12817748     0.07700
N1681       N  0.90201370  0.59663750  0.48194574    -0.26700
N1682       N  0.90096789  0.60684454  0.48764701    -0.34600
C1683       C  0.89991326  0.61565402  0.47965395     0.01600
C1684       C  0.90032652  0.61076962  0.46836000     0.07700
C1685       C  0.90164492  0.59867350  0.47016661    -0.05400
H1686       H  0.89900457  0.62495359  0.48189337     0.08300
H1687       H  0.90255423  0.59188498  0.46342387     0.09500
Cu1688     Cu  0.90150476  0.60828478  0.50604185     0.44200
Cu1689     Cu  0.90457659  0.58058217  0.49057929     0.42000
Cu1690     Cu  0.90958875  0.58161720  0.52247699     0.43900
N1691       N  0.90277643  0.60749648  0.52444054    -0.34100
N1692       N  0.90586598  0.59786919  0.53041961    -0.28400
C1693       C  0.90553082  0.60029496  0.54212551    -0.04500
C1694       C  0.90205816  0.61200323  0.54358640     0.07800
C1695       C  0.90040633  0.61628536  0.53218210     0.01600
H1696       H  0.90753718  0.59396145  0.54906415     0.09200
H1697       H  0.89746894  0.62508696  0.52969806     0.08300
N1698       N  0.91046234  0.56613756  0.51244012    -0.35500
N1699       N  0.90832745  0.56580273  0.50089436    -0.27700
C1700       C  0.90874434  0.55447430  0.49717016    -0.03000
C1701       C  0.91128342  0.54728018  0.50680009     0.05600
C1702       C  0.91233746  0.55499209  0.51634956     0.03700
H1703       H  0.90698642  0.55164654  0.48815797     0.08800
H1704       H  0.91407164  0.55265942  0.52550734     0.07700
N1705       N  0.16186775  0.59409612  0.48027250    -0.26700
N1706       N  0.16217689  0.60374193  0.48694999    -0.34600
C1707       C  0.16324333  0.61333806  0.47991365     0.01600
C1708       C  0.16364022  0.60955141  0.46821276     0.07700
C1709       C  0.16275422  0.59728861  0.46879610    -0.05400
H1710       H  0.16357608  0.62239994  0.48308180     0.08300
H1711       H  0.16278591  0.59113270  0.46141864     0.09500
Cu1712     Cu  0.16126591  0.60328020  0.50530686     0.44200
Cu1713     Cu  0.16029966  0.57706994  0.48716905     0.42000
Cu1714     Cu  0.16128332  0.57419139  0.51934155     0.43900
N1715       N  0.16117772  0.60064353  0.52349999    -0.34100
N1716       N  0.16148868  0.59011123  0.52867446    -0.28400
C1717       C  0.16161839  0.59163241  0.54053487    -0.04500
C1718       C  0.16131779  0.60370747  0.54292605     0.07800
C1719       C  0.16100475  0.60911675  0.53189526     0.01600
H1720       H  0.16193352  0.58447396  0.54693224     0.09200
H1721       H  0.16060427  0.61853985  0.53008088     0.08300
N1722       N  0.15994286  0.55986899  0.50777286    -0.35500
N1723       N  0.15942608  0.56095649  0.49608693    -0.27700
C1724       C  0.15853119  0.55009462  0.49119708    -0.03000
C1725       C  0.15851254  0.54174113  0.50021888     0.05600
C1726       C  0.15941413  0.54827193  0.51061361     0.03700
H1727       H  0.15797174  0.54840390  0.48175451     0.08800
H1728       H  0.15980877  0.54484109  0.51957909     0.07700
C1729       C  0.65281772  0.98605400  0.00317940    -0.04900
C1730       C  0.64377325  0.99233307  0.00914206     0.09300
C1731       C  0.63497634  0.98607545  0.01550757    -0.02300
C1732       C  0.63510023  0.97354185  0.01573281    -0.00500
C1733       C  0.64405571  0.96721905  0.00958711    -0.04100
C1734       C  0.65304647  0.97355326  0.00350244     0.02900
C1735       C  0.64368229  0.00559828  0.00884332     0.09700
C1736       C  0.62581412  0.99257750  0.02182126     0.35600
C1737       C  0.66286541  0.96725567  0.99801509     0.39000
C1738       C  0.63668369  0.01164474  0.00041496    -0.04500
C1739       C  0.63680762  0.02416445  0.99995260     0.02600
C1740       C  0.64426053  0.03072702  0.00768979    -0.04100
C1741       C  0.65137544  0.02457282  0.01605474    -0.00300
C1742       C  0.65096783  0.01207450  0.01669376    -0.02900
C1743       C  0.62958811  0.00492019  0.99201335     0.36400
C1744       C  0.65960338  0.03096994  0.02363649     0.40000
C1745       C  0.62904136  0.03023835  0.99166022     0.39100
C1746       C  0.65828810  0.00579789  0.02524344     0.36000
C1747       C  0.66191888  0.99251048  0.99672496     0.36700
C1748       C  0.62587715  0.96718528  0.02210563     0.40000
N1749       N  0.62281747  0.03503919  0.98503783    -0.38100
N1750       N  0.62401570  0.99952303  0.98526620    -0.39700
N1751       N  0.66620371  0.03602384  0.02968821    -0.37400
N1752       N  0.66414702  0.00076080  0.03201864    -0.39800
N1753       N  0.61851935  0.99779257  0.02685278    -0.39600
N1754       N  0.61852527  0.96213814  0.02722634    -0.37200
N1755       N  0.67073753  0.96223377  0.99371001    -0.38300
N1756       N  0.66916476  0.99768826  0.99158754    -0.39900
C1757       C  0.40176672  0.00958191  0.01012581    -0.04900
C1758       C  0.40942460  0.00305079  0.00265535     0.09300
C1759       C  0.41716649  0.00908590  0.99486010    -0.02300
C1760       C  0.41726282  0.02160391  0.99452711    -0.00500
C1761       C  0.40962026  0.02817329  0.00202483    -0.04100
C1762       C  0.40184355  0.02210171  0.00981005     0.02900
C1763       C  0.40939442  0.98977250  0.00303696     0.09700
C1764       C  0.42508867  0.00236926  0.98722753     0.35600
C1765       C  0.39363323  0.02870270  0.01724153     0.39000
C1766       C  0.40044126  0.98331464  0.99710624    -0.04500
C1767       C  0.40040613  0.97078717  0.99748175     0.02600
C1768       C  0.40938966  0.96462822  0.00376761    -0.04100
C1769       C  0.41848190  0.97114734  0.00949703    -0.00300
C1770       C  0.41840503  0.98366490  0.00922771    -0.02900
C1771       C  0.39125355  0.98961075  0.99062447     0.36400
C1772       C  0.42823216  0.96499803  0.01525013     0.40000
C1773       C  0.39093920  0.96430165  0.99161517     0.39100
C1774       C  0.42761601  0.99030758  0.01532393     0.36000
C1775       C  0.39381374  0.00338291  0.01815378     0.36700
C1776       C  0.42549184  0.02770218  0.98670230     0.40000
N1777       N  0.38338383  0.95916937  0.98689174    -0.38100
N1778       N  0.38392767  0.99466610  0.98548597    -0.39700
N1779       N  0.43604635  0.96009307  0.01977932    -0.37400
N1780       N  0.43496073  0.99562776  0.02016630    -0.39800
N1781       N  0.43143465  0.99698252  0.98119207    -0.39600
N1782       N  0.43206063  0.03255634  0.98045598    -0.37200
N1783       N  0.38707301  0.03396586  0.02315840    -0.38300
N1784       N  0.38745329  0.99842795  0.02453381    -0.39900
C1785       C  0.02046299  0.00066788  0.63076017    -0.04900
C1786       C  0.02576965  0.99459019  0.62116337     0.09300
C1787       C  0.01850739  0.98919336  0.61248639    -0.02300
C1788       C  0.00600422  0.98982315  0.61341904    -0.00500
C1789       C  0.00065135  0.99584528  0.62307797    -0.04100
C1790       C  0.00797176  0.00128342  0.63173696     0.02900
C1791       C  0.03904683  0.99388472  0.62022822     0.09700
C1792       C  0.02394552  0.98301072  0.60257092     0.35600
C1793       C  0.00269309  0.00722655  0.64188195     0.39000
C1794       C  0.04543481  0.98576560  0.62732313    -0.04500
C1795       C  0.05795835  0.98537100  0.62677278     0.02600
C1796       C  0.06420758  0.99298216  0.61896591    -0.04100
C1797       C  0.05777625  0.00106074  0.61179933    -0.00300
C1798       C  0.04525475  0.00153095  0.61247154    -0.02900
C1799       C  0.03908801  0.97790930  0.63532304     0.36400
C1800       C  0.06400284  0.00879775  0.60358518     0.40000
C1801       C  0.06441369  0.97754700  0.63471372     0.39100
C1802       C  0.03872241  0.00999569  0.60528858     0.36000
C1803       C  0.02791065  0.00629297  0.63964951     0.36700
C1804       C  0.99867743  0.98460162  0.60419497     0.40000
N1805       N  0.06957858  0.97135921  0.64108946    -0.38100
N1806       N  0.03402005  0.97166678  0.64172762    -0.39700
N1807       N  0.06894630  0.01498928  0.59703243    -0.37400
N1808       N  0.03348147  0.01673605  0.59957036    -0.39800
N1809       N  0.02831434  0.97812010  0.59465078    -0.39600
N1810       N  0.99284817  0.98045336  0.59681085    -0.37200
N1811       N  0.99850011  0.01197575  0.64998178    -0.38300
N1812       N  0.03388020  0.01074574  0.64673709    -0.39900
C1813       C  0.01968196  0.01239408  0.38361617    -0.04900
C1814       C  0.02682265  0.00463062  0.37687231     0.09300
C1815       C  0.02142116  0.99603942  0.36951934    -0.02300
C1816       C  0.00891218  0.99537347  0.36871171    -0.00500
C1817       C  0.00170261  0.00320984  0.37541758    -0.04100
C1818       C  0.00718841  0.01160886  0.38301399     0.02900
C1819       C  0.04007623  0.00526981  0.37783011     0.09700
C1820       C  0.02878687  0.98783850  0.36284038     0.35600
C1821       C  0.00001941  0.01912853  0.39064113     0.39000
C1822       C  0.04594187  0.99932495  0.38715476    -0.04500
C1823       C  0.05843178  0.99972514  0.38801375     0.02600
C1824       C  0.06517966  0.00610001  0.37953538    -0.04100
C1825       C  0.05924427  0.01244276  0.37045571    -0.00300
C1826       C  0.04673476  0.01192396  0.36955083    -0.02900
C1827       C  0.03907251  0.99278029  0.39587620     0.36400
C1828       C  0.06597920  0.01927822  0.36185713     0.40000
C1829       C  0.06429699  0.99386923  0.39787926     0.39100
C1830       C  0.04067945  0.01813817  0.36003302     0.36000
C1831       C  0.02524742  0.02114649  0.39126626     0.36700
C1832       C  0.00352830  0.98681875  0.36072014     0.40000
N1833       N  0.06897641  0.98922774  0.40576487    -0.38100
N1834       N  0.03356524  0.98759866  0.40284086    -0.39700
N1835       N  0.07132633  0.02480165  0.35502889    -0.37400
N1836       N  0.03583376  0.02306041  0.35242356    -0.39800
N1837       N  0.03469013  0.98128730  0.35755374    -0.39600
N1838       N  0.99927077  0.97997390  0.35433643    -0.37200
N1839       N  0.99431206  0.02509058  0.39677368    -0.38300
N1840       N  0.02971826  0.02811375  0.39736186    -0.39900
C1841       C  0.03701793  0.36251539  0.98618957    -0.04900
C1842       C  0.03144426  0.37207944  0.99203281     0.09300
C1843       C  0.02493017  0.38048458  0.98542839    -0.02300
C1844       C  0.02411002  0.37940959  0.97296163    -0.00500
C1845       C  0.02964268  0.36977385  0.96707204    -0.04100
C1846       C  0.03596316  0.36124059  0.97379077     0.02900
C1847       C  0.03208844  0.37293689  0.00525212     0.09700
C1848       C  0.01904413  0.39020106  0.99150968     0.35600
C1849       C  0.04093797  0.35082039  0.96806408     0.39000
C1850       C  0.04086459  0.38000389  0.01072781    -0.04500
C1851       C  0.04182675  0.38027101  0.02322386     0.02600
C1852       C  0.03413609  0.37328157  0.03028839    -0.04100
C1853       C  0.02541227  0.36612585  0.02472834    -0.00300
C1854       C  0.02426868  0.36613868  0.01227392    -0.02900
C1855       C  0.04892178  0.38695251  0.00346078     0.36400
C1856       C  0.01793294  0.35830603  0.03173802     0.40000
C1857       C  0.05052378  0.38798350  0.02878512     0.39100
C1858       C  0.01505421  0.35910943  0.00662427     0.36000
C1859       C  0.04382085  0.35395072  0.99300416     0.36700
C1860       C  0.01782885  0.38840208  0.96621322     0.40000
N1861       N  0.05744833  0.39416231  0.03321215    -0.38100
N1862       N  0.05534097  0.39248446  0.99763865    -0.39700
N1863       N  0.01199972  0.35202115  0.03730719    -0.37400
N1864       N  0.00768084  0.35355570  0.00209773    -0.39800
N1865       N  0.01434267  0.39793246  0.99639010    -0.39600
N1866       N  0.01281697  0.39559800  0.96085449    -0.37200
N1867       N  0.04484579  0.34246268  0.96352895    -0.38300
N1868       N  0.04926510  0.34716461  0.99847193    -0.39900
C1869       C  0.03920812  0.61376100  0.01960651    -0.04900
C1870       C  0.03051342  0.62017650  0.01330768     0.09300
C1871       C  0.02171449  0.62653385  0.01953296    -0.02300
C1872       C  0.02166118  0.62661287  0.03205631    -0.00500
C1873       C  0.03042852  0.62024921  0.03846807    -0.04100
C1874       C  0.03916201  0.61374331  0.03213717     0.02900
C1875       C  0.03058773  0.62026924  0.00004590     0.09700
C1876       C  0.01277258  0.63310747  0.01298139     0.35600
C1877       C  0.04794038  0.60673177  0.03844462     0.39000
C1878       C  0.02413672  0.61162125  0.99368685    -0.04500
C1879       C  0.02376790  0.61200152  0.98117689     0.02600
C1880       C  0.02998977  0.62095841  0.97496281    -0.04100
C1881       C  0.03670169  0.62944092  0.98135195    -0.00300
C1882       C  0.03688251  0.62916559  0.99387173    -0.02900
C1883       C  0.01786291  0.60235229  0.00006761     0.36400
C1884       C  0.04316138  0.63866420  0.97508317     0.40000
C1885       C  0.01723268  0.60298243  0.97469639     0.39100
C1886       C  0.04336581  0.63815459  0.00045027     0.36000
C1887       C  0.04819816  0.60716483  0.01313671     0.36700
C1888       C  0.01280344  0.63363870  0.03824355     0.40000
N1889       N  0.01203245  0.59577808  0.96952363    -0.38100
N1890       N  0.01289041  0.59495816  0.00519262    -0.39700
N1891       N  0.04835095  0.64600206  0.97009095    -0.37400
N1892       N  0.04848399  0.64534741  0.00572008    -0.39800
N1893       N  0.00566339  0.63834068  0.00772010    -0.39600
N1894       N  0.00569286  0.63923675  0.04312662    -0.37200
N1895       N  0.05497343  0.60114071  0.04343685    -0.38300
N1896       N  0.05535748  0.60191380  0.00795092    -0.39900
C1897       C  0.54074126  0.50416154  0.88985903    -0.04900
C1898       C  0.53439400  0.49657639  0.88216628     0.09300
C1899       C  0.54065987  0.48919107  0.87422026    -0.02300
C1900       C  0.55319489  0.48946522  0.87384355    -0.00500
C1901       C  0.55964134  0.49707043  0.88154908    -0.04100
C1902       C  0.55330107  0.50430973  0.88967426     0.02900
C1903       C  0.52106118  0.49649117  0.88218563     0.09700
C1904       C  0.53413464  0.48137788  0.86630695     0.35600
C1905       C  0.55965068  0.51160196  0.89819087     0.39000
C1906       C  0.51476763  0.50277152  0.87336655    -0.04500
C1907       C  0.50226455  0.50201719  0.87276793     0.02600
C1908       C  0.49588029  0.49526120  0.88125449    -0.04100
C1909       C  0.50219362  0.48933947  0.89036083    -0.00300
C1910       C  0.51474154  0.48979665  0.89069915    -0.02900
C1911       C  0.52122214  0.50997999  0.86485083     0.36400
C1912       C  0.49578140  0.48313372  0.89965256     0.40000
C1913       C  0.49605952  0.50784524  0.86309836     0.39100
C1914       C  0.52119720  0.48327487  0.89973238     0.36000
C1915       C  0.53429994  0.51192818  0.89787293     0.36700
C1916       C  0.55935694  0.48214631  0.86520641     0.40000
N1917       N  0.49113234  0.51247704  0.85535875    -0.38100
N1918       N  0.52639597  0.51575057  0.85809664    -0.39700
N1919       N  0.49067090  0.47826934  0.90713146    -0.37400
N1920       N  0.52637776  0.47805626  0.90691110    -0.39800
N1921       N  0.52889706  0.47518591  0.85998832    -0.39600
N1922       N  0.56421861  0.47625698  0.85831937    -0.37200
N1923       N  0.56469172  0.51739123  0.90503209    -0.38300
N1924       N  0.52914447  0.51814943  0.90423152    -0.39900
C1925       C  0.54171987  0.88250366  0.49364753    -0.04900
C1926       C  0.53273304  0.87680485  0.50023861     0.09300
C1927       C  0.52380931  0.87034415  0.49430479    -0.02300
C1928       C  0.52380237  0.86962559  0.48179697    -0.00500
C1929       C  0.53266344  0.87555049  0.47507459    -0.04100
C1930       C  0.54169695  0.88192596  0.48112040     0.02900
C1931       C  0.53268997  0.87753140  0.51350241     0.09700
C1932       C  0.51461936  0.86441392  0.50113249     0.35600
C1933       C  0.55077808  0.88827889  0.47454428     0.39000
C1934       C  0.52589783  0.88630896  0.51930720    -0.04500
C1935       C  0.52556625  0.88677060  0.53183121     0.02600
C1936       C  0.53223051  0.87857356  0.53863861    -0.04100
C1937       C  0.53917944  0.86988884  0.53275555    -0.00300
C1938       C  0.53931949  0.86933103  0.52023784    -0.02900
C1939       C  0.51931941  0.89491540  0.51233674     0.36400
C1940       C  0.54589419  0.86123337  0.53953035     0.40000
C1941       C  0.51857429  0.89588255  0.53767371     0.39100
C1942       C  0.54616763  0.86021268  0.51423019     0.36000
C1943       C  0.55091877  0.88909810  0.49981674     0.36700
C1944       C  0.51483664  0.86244623  0.47594343     0.40000
N1945       N  0.51296554  0.90314634  0.54230928    -0.38100
N1946       N  0.51411934  0.90178888  0.50674108    -0.39700
N1947       N  0.55129175  0.85433297  0.54490286    -0.37400
N1948       N  0.55159622  0.85294014  0.50939997    -0.39800
N1949       N  0.50728569  0.85971261  0.50659456    -0.39600
N1950       N  0.50765500  0.85672184  0.47131770    -0.37200
N1951       N  0.55807959  0.89334237  0.46936671    -0.38300
N1952       N  0.55824123  0.89434535  0.50477154    -0.39900
C1953       C  0.90302955  0.49060814  0.49530955    -0.04900
C1954       C  0.91022277  0.49570717  0.50421576     0.09300
C1955       C  0.91684210  0.48830481  0.51183932    -0.02300
C1956       C  0.91637986  0.47585114  0.51048964    -0.00500
C1957       C  0.90918567  0.47069133  0.50154295    -0.04100
C1958       C  0.90254551  0.47816327  0.49392613     0.02900
C1959       C  0.91099225  0.50893135  0.50537761     0.09700
C1960       C  0.92410706  0.49354543  0.52110684     0.35600
C1961       C  0.89486993  0.47309124  0.48490321     0.39000
C1962       C  0.90435113  0.51492014  0.51415943    -0.04500
C1963       C  0.90470035  0.52743290  0.51489568     0.02600
C1964       C  0.91171138  0.53405252  0.50681373    -0.04100
C1965       C  0.91860978  0.52797472  0.49823159    -0.00300
C1966       C  0.91819134  0.51547971  0.49748750    -0.02900
C1967       C  0.89688723  0.50818750  0.52222467     0.36400
C1968       C  0.92634247  0.53453781  0.49027485     0.40000
C1969       C  0.89738508  0.53345857  0.52363014     0.39100
C1970       C  0.92505906  0.50931633  0.48848403     0.36000
C1971       C  0.89592606  0.49821570  0.48771730     0.36700
C1972       C  0.92362728  0.46840000  0.51810194     0.40000
N1973       N  0.89154699  0.53825037  0.53060970    -0.38100
N1974       N  0.89093349  0.50280868  0.52865290    -0.39700
N1975       N  0.93252586  0.53975223  0.48392644    -0.37400
N1976       N  0.93046867  0.50437016  0.48127303    -0.39800
N1977       N  0.92983142  0.49774811  0.52854137    -0.39600
N1978       N  0.92943110  0.46248358  0.52417983    -0.37200
N1979       N  0.88875930  0.46906369  0.47768152    -0.38300
N1980       N  0.89024358  0.50430424  0.48169808    -0.39900
C1981       C  0.16630251  0.48411486  0.50332411    -0.04900
C1982       C  0.15769787  0.49021712  0.49657731     0.09300
C1983       C  0.14949611  0.48375402  0.48965276    -0.02300
C1984       C  0.14982955  0.47121205  0.48955381    -0.00500
C1985       C  0.15835155  0.46505654  0.49645573    -0.04100
C1986       C  0.16667473  0.47160231  0.50323500     0.02900
C1987       C  0.15732277  0.50350001  0.49689360     0.09700
C1988       C  0.14064871  0.49004983  0.48272480     0.35600
C1989       C  0.17591043  0.46551348  0.50983956     0.39000
C1990       C  0.16538556  0.51016441  0.49000257    -0.04500
C1991       C  0.16585575  0.52263114  0.49115416     0.02600
C1992       C  0.15799390  0.52857465  0.49897440    -0.04100
C1993       C  0.14968279  0.52187252  0.50562376    -0.00300
C1994       C  0.14941216  0.50938014  0.50462886    -0.02900
C1995       C  0.17327786  0.50413014  0.48178937     0.36400
C1996       C  0.14123601  0.52779966  0.51334608     0.40000
C1997       C  0.17488078  0.52923029  0.48473931     0.39100
C1998       C  0.14105643  0.50251605  0.51164149     0.36000
C1999       C  0.17475540  0.49077187  0.51042697     0.36700
C2000       C  0.14116126  0.46468013  0.48260928     0.40000
N2001       N  0.18213117  0.53447261  0.47967071    -0.38100
N2002       N  0.17953532  0.49930076  0.47521316    -0.39700
N2003       N  0.13448741  0.53250131  0.51951866    -0.37400
N2004       N  0.13439114  0.49700647  0.51720272    -0.39800
N2005       N  0.13357273  0.49509545  0.47723877    -0.39600
N2006       N  0.13424564  0.45949423  0.47704073    -0.37200
N2007       N  0.18329981  0.46067824  0.51509770    -0.38300
N2008       N  0.18148066  0.49612071  0.51607115    -0.39900
C2009       C  0.52125294  0.50736760  0.12799959    -0.04900
C2010       C  0.52756145  0.49838581  0.13401035     0.09300
C2011       C  0.52131831  0.48984882  0.14071177    -0.02300
C2012       C  0.50879685  0.49023905  0.14134801    -0.00500
C2013       C  0.50236957  0.49895957  0.13493622    -0.04100
C2014       C  0.50872064  0.50759913  0.12832508     0.02900
C2015       C  0.54083337  0.49794618  0.13321568     0.09700
C2016       C  0.52781645  0.48058914  0.14687303     0.35600
C2017       C  0.50245776  0.51649653  0.12143549     0.39000
C2018       C  0.54784588  0.50301788  0.14226823    -0.04500
C2019       C  0.56034344  0.50308401  0.14127884     0.02600
C2020       C  0.56594086  0.49794368  0.13125949    -0.04100
C2021       C  0.55887936  0.49261426  0.12232020    -0.00300
C2022       C  0.54637078  0.49271399  0.12326159    -0.02900
C2023       C  0.54215406  0.50814321  0.15263248     0.36400
C2024       C  0.56442856  0.48725688  0.11199300     0.40000
C2025       C  0.56742824  0.50810335  0.15079963     0.39100
C2026       C  0.53913791  0.48750315  0.11395075     0.36000
C2027       C  0.52772700  0.51633803  0.12138151     0.36700
C2028       C  0.50260187  0.48187330  0.14894697     0.40000
N2029       N  0.57308192  0.51210798  0.15839581    -0.38100
N2030       N  0.53759071  0.51217224  0.16091883    -0.39700
N2031       N  0.56881382  0.48293155  0.10375773    -0.37400
N2032       N  0.53332725  0.48339646  0.10652923    -0.39800
N2033       N  0.53300629  0.47318781  0.15175986    -0.39600
N2034       N  0.49768620  0.47522145  0.15505440    -0.37200
N2035       N  0.49752949  0.52363591  0.11592503    -0.38300
N2036       N  0.53293203  0.52348020  0.11613080    -0.39900
C2037       C  0.54475807  0.11277695  0.49063129    -0.04900
C2038       C  0.53605985  0.12019006  0.49576759     0.09300
C2039       C  0.52827928  0.12665091  0.48841395    -0.02300
C2040       C  0.52901056  0.12553609  0.47595920    -0.00500
C2041       C  0.53740479  0.11773667  0.47073978    -0.04100
C2042       C  0.54545566  0.11154327  0.47816345     0.02900
C2043       C  0.53500398  0.12105699  0.50898434     0.09700
C2044       C  0.51945030  0.13440094  0.49371300     0.35600
C2045       C  0.55426026  0.10362888  0.47308038     0.39000
C2046       C  0.54079173  0.13026483  0.51518779    -0.04500
C2047       C  0.54016247  0.13080165  0.52769647     0.02600
C2048       C  0.53373641  0.12208296  0.53409810    -0.04100
C2049       C  0.52774157  0.11299179  0.52779771    -0.00300
C2050       C  0.52829875  0.11256539  0.51528717    -0.02900
C2051       C  0.54729490  0.13925677  0.50863856     0.36400
C2052       C  0.52136333  0.10376820  0.53414736     0.40000
C2053       C  0.54586795  0.14054623  0.53390797     0.39100
C2054       C  0.52191492  0.10341300  0.50883608     0.36000
C2055       C  0.55289925  0.10631713  0.49825160     0.36700
C2056       C  0.52136893  0.13278301  0.46854005     0.40000
N2057       N  0.55042851  0.14833365  0.53883504    -0.38100
N2058       N  0.55241761  0.14645317  0.50338081    -0.39700
N2059       N  0.51627822  0.09638566  0.53918137    -0.37400
N2060       N  0.51677870  0.09616610  0.50365954    -0.39800
N2061       N  0.51240933  0.14057670  0.49795255    -0.39600
N2062       N  0.51529688  0.13859330  0.46262511    -0.37200
N2063       N  0.56135380  0.09733322  0.46910835    -0.38300
N2064       N  0.55935625  0.10118799  0.50438549    -0.39900
C2065       C  0.17636462  0.34817383  0.41722702    -0.04900
C2066       C  0.16763161  0.35709888  0.41814322     0.09300
C2067       C  0.15981921  0.35913665  0.40857947    -0.02300
C2068       C  0.16058542  0.35215354  0.39818853    -0.00500
C2069       C  0.16934149  0.34316138  0.39721048    -0.04100
C2070       C  0.17734782  0.34135168  0.40674949     0.02900
C2071       C  0.16676640  0.36451911  0.42914724     0.09700
C2072       C  0.15094301  0.36843230  0.40950624     0.35600
C2073       C  0.18694566  0.33282385  0.40564447     0.39000
C2074       C  0.17355061  0.37499433  0.43018702    -0.04500
C2075       C  0.17285572  0.38196387  0.44058655     0.02600
C2076       C  0.16521931  0.37857462  0.44999116    -0.04100
C2077       C  0.15820220  0.36820211  0.44877941    -0.00300
C2078       C  0.15905316  0.36116678  0.43843159    -0.02900
C2079       C  0.18122201  0.37860302  0.42047950     0.36400
C2080       C  0.14973219  0.36498812  0.45795065     0.40000
C2081       C  0.18029318  0.39242719  0.44169255     0.39100
C2082       C  0.15191468  0.35050289  0.43725558     0.36000
C2083       C  0.18433246  0.34601164  0.42711870     0.36700
C2084       C  0.15208312  0.35404649  0.38869947     0.40000
N2085       N  0.18623109  0.40077717  0.44254453    -0.38100
N2086       N  0.18729305  0.38147546  0.41269450    -0.39700
N2087       N  0.14293056  0.36244334  0.46523238    -0.37400
N2088       N  0.14621781  0.34199937  0.43629383    -0.39800
N2089       N  0.14389524  0.37587177  0.41029858    -0.39600
N2090       N  0.14527705  0.35561453  0.38115711    -0.37200
N2091       N  0.19464559  0.32607092  0.40475173    -0.38300
N2092       N  0.19065413  0.34425575  0.43503064    -0.39900
C2093       C  0.09614666  0.36928378  0.13186038    -0.04900
C2094       C  0.10501818  0.36119118  0.12831815     0.09300
C2095       C  0.10315853  0.35386083  0.11833549    -0.02300
C2096       C  0.09241092  0.35456288  0.11194583    -0.00500
C2097       C  0.08368153  0.36300447  0.11518184    -0.04100
C2098       C  0.08563774  0.37041125  0.12516040     0.02900
C2099       C  0.11622113  0.36021639  0.13534469     0.09700
C2100       C  0.11228462  0.34550468  0.11474098     0.35600
C2101       C  0.07703486  0.37944523  0.12839800     0.39000
C2102       C  0.11749577  0.35108128  0.14380254    -0.04500
C2103       C  0.12786016  0.35038898  0.15077797     0.02600
C2104       C  0.13695477  0.35896119  0.14945541    -0.04100
C2105       C  0.13566936  0.36809222  0.14092272    -0.00300
C2106       C  0.12537150  0.36863830  0.13381387    -0.02900
C2107       C  0.10806641  0.34243030  0.14535024     0.36400
C2108       C  0.14469050  0.37722710  0.13977041     0.40000
C2109       C  0.12926199  0.34064637  0.15908813     0.39100
C2110       C  0.12413410  0.37788719  0.12492925     0.36000
C2111       C  0.09776911  0.37627293  0.14257390     0.36700
C2112       C  0.09010817  0.34615676  0.10245282     0.40000
N2113       N  0.13037706  0.33286285  0.16570484    -0.38100
N2114       N  0.10052791  0.33554193  0.14654126    -0.39700
N2115       N  0.15185207  0.38455082  0.13887257    -0.37400
N2116       N  0.12313690  0.38524202  0.11782097    -0.39800
N2117       N  0.11958139  0.33884796  0.11189096    -0.39600
N2118       N  0.08822436  0.33936435  0.09496741    -0.37200
N2119       N  0.07021914  0.38668889  0.13100080    -0.38300
N2120       N  0.09905663  0.38174123  0.15118504    -0.39900
C2121       C  0.18146305  0.34329479  0.28342608    -0.04900
C2122       C  0.17335419  0.33903169  0.27488039     0.09300
C2123       C  0.16381536  0.33173460  0.27842270    -0.02300
C2124       C  0.16266393  0.32828453  0.29039912    -0.00500
C2125       C  0.17095806  0.33228636  0.29895205    -0.04100
C2126       C  0.18022226  0.34001871  0.29545821     0.02900
C2127       C  0.17513064  0.34179556  0.26202456     0.09700
C2128       C  0.15527459  0.32766819  0.26966866     0.35600
C2129       C  0.18882230  0.34416942  0.30410954     0.39000
C2130       C  0.18219485  0.33425152  0.25494725    -0.04500
C2131       C  0.18375765  0.33668062  0.24275609     0.02600
C2132       C  0.17803339  0.34656645  0.23750923    -0.04100
C2133       C  0.17100729  0.35414759  0.24467404    -0.00300
C2134       C  0.16960479  0.35177715  0.25689726    -0.02900
C2135       C  0.18766031  0.32384181  0.26022302     0.36400
C2136       C  0.16549084  0.36460988  0.23957595     0.40000
C2137       C  0.19099277  0.32877161  0.23560001     0.39100
C2138       C  0.16243867  0.35957353  0.26423897     0.36000
C2139       C  0.19125995  0.35081247  0.27974737     0.36700
C2140       C  0.15287566  0.32066450  0.29391381     0.40000
N2141       N  0.19682406  0.32245801  0.22995461    -0.38100
N2142       N  0.19194389  0.31552327  0.26447159    -0.39700
N2143       N  0.16109325  0.37296262  0.23551489    -0.37400
N2144       N  0.15672803  0.36577944  0.27011936    -0.39800
N2145       N  0.14845747  0.32447346  0.26266791    -0.39600
N2146       N  0.14508341  0.31456236  0.29670313    -0.37200
N2147       N  0.19567195  0.34749861  0.31101679    -0.38300
N2148       N  0.19909311  0.35678062  0.27679231    -0.39900
C2149       C  0.17561509  0.08974112  0.38857394    -0.04900
C2150       C  0.17720091  0.07981620  0.38109051     0.09300
C2151       C  0.18639585  0.07984233  0.37256833    -0.02300
C2152       C  0.19379191  0.08986864  0.37131525    -0.00500
C2153       C  0.19197366  0.09998048  0.37854937    -0.04100
C2154       C  0.18292557  0.09982921  0.38726108     0.02900
C2155       C  0.16898719  0.06941174  0.38194466     0.09700
C2156       C  0.18813809  0.06956560  0.36498603     0.35600
C2157       C  0.18123234  0.10999481  0.39500132     0.39000
C2158       C  0.15973954  0.06804547  0.37360319    -0.04500
C2159       C  0.15236833  0.05792032  0.37395705     0.02600
C2160       C  0.15387781  0.04931289  0.38299790    -0.04100
C2161       C  0.16289192  0.05096167  0.39161705    -0.00300
C2162       C  0.17054884  0.06085866  0.39094594    -0.02900
C2163       C  0.15781521  0.07712429  0.36466154     0.36400
C2164       C  0.16406672  0.04272033  0.40144621     0.40000
C2165       C  0.14359591  0.05617097  0.36468144     0.39100
C2166       C  0.18009054  0.06225624  0.39949440     0.36000
C2167       C  0.16640503  0.08956423  0.39758762     0.36700
C2168       C  0.20294177  0.08991566  0.36223049     0.40000
N2169       N  0.13665095  0.05478978  0.35722739    -0.38100
N2170       N  0.15627019  0.08441487  0.35758562    -0.39700
N2171       N  0.16497924  0.03619858  0.40933663    -0.37400
N2172       N  0.18771417  0.06340337  0.40629444    -0.39800
N2173       N  0.18950181  0.06137877  0.35891941    -0.39600
N2174       N  0.21024925  0.08993671  0.35499345    -0.37200
N2175       N  0.17987700  0.11810376  0.40117507    -0.38300
N2176       N  0.15910404  0.08936397  0.40482624    -0.39900
C2177       C  0.19262108  0.23859231  0.34702946    -0.04900
C2178       C  0.18563315  0.23030469  0.35329715     0.09300
C2179       C  0.17574088  0.23421151  0.35992939    -0.02300
C2180       C  0.17284892  0.24640477  0.36030163    -0.00500
C2181       C  0.17997344  0.25474384  0.35419291    -0.04100
C2182       C  0.18994676  0.25078325  0.34764632     0.02900
C2183       C  0.18934938  0.21758431  0.35359051     0.09700
C2184       C  0.16861496  0.22566329  0.36641729     0.35600
C2185       C  0.19778187  0.25927452  0.34192354     0.39000
C2186       C  0.19887916  0.21417389  0.36096450    -0.04500
C2187       C  0.20326137  0.20248417  0.36053815     0.02600
C2188       C  0.19784232  0.19400480  0.35303965    -0.04100
C2189       C  0.18791146  0.19725840  0.34610120    -0.00300
C2190       C  0.18383982  0.20911197  0.34617056    -0.02900
C2191       C  0.20418012  0.22276438  0.36898499     0.36400
C2192       C  0.18205271  0.18847427  0.33871446     0.40000
C2193       C  0.21324302  0.19915653  0.36798027     0.39100
C2194       C  0.17420901  0.21268179  0.33840228     0.36000
C2195       C  0.20262774  0.23452625  0.33997835     0.36700
C2196       C  0.16237732  0.25031297  0.36670916     0.40000
N2197       N  0.22123214  0.19652034  0.37388529    -0.38100
N2198       N  0.20834386  0.22964450  0.37538900    -0.39700
N2199       N  0.17733946  0.18143933  0.33288219    -0.37400
N2200       N  0.16656148  0.21554225  0.33215882    -0.39800
N2201       N  0.16294897  0.21880776  0.37157362    -0.39600
N2202       N  0.15399556  0.25341600  0.37179457    -0.37200
N2203       N  0.20408258  0.26603417  0.33741602    -0.38300
N2204       N  0.21057674  0.23124143  0.33434249    -0.39900
C2205       C  0.44509470  0.10967947  0.36548023    -0.04900
C2206       C  0.45430552  0.11816770  0.36634833     0.09300
C2207       C  0.45340934  0.12889949  0.35990265    -0.02300
C2208       C  0.44340572  0.13112899  0.35268267    -0.00500
C2209       C  0.43438810  0.12246449  0.35148087    -0.04100
C2210       C  0.43523192  0.11176768  0.35800998     0.02900
C2211       C  0.46502822  0.11579478  0.37394882     0.09700
C2212       C  0.46289868  0.13759936  0.36055909     0.35600
C2213       C  0.42616370  0.10269618  0.35674993     0.39000
C2214       C  0.47356245  0.10732036  0.37038322    -0.04500
C2215       C  0.48379794  0.10531940  0.37735424     0.02600
C2216       C  0.48599328  0.11228243  0.38759948    -0.04100
C2217       C  0.47734636  0.12068108  0.39123215    -0.00300
C2218       C  0.46681840  0.12222687  0.38457259    -0.02900
C2219       C  0.47195296  0.10086315  0.35934240     0.36400
C2220       C  0.47945211  0.12819764  0.40148247     0.40000
C2221       C  0.49187634  0.09580783  0.37414172     0.39100
C2222       C  0.45787064  0.13061448  0.38854292     0.36000
C2223       C  0.44583942  0.09870854  0.37218681     0.36700
C2224       C  0.44220899  0.14254485  0.34682759     0.40000
N2225       N  0.49823099  0.08813120  0.37161713    -0.38100
N2226       N  0.47065247  0.09575110  0.35051673    -0.39700
N2227       N  0.48109486  0.13424633  0.40963401    -0.37400
N2228       N  0.45073846  0.13732383  0.39167429    -0.39800
N2229       N  0.47046524  0.14453991  0.36109511    -0.39600
N2230       N  0.44120699  0.15168257  0.34223200    -0.37200
N2231       N  0.41892796  0.09546180  0.35573318    -0.38300
N2232       N  0.44646640  0.08991922  0.37747365    -0.39900
C2233       C  0.32424308  0.13692856  0.35237255    -0.04900
C2234       C  0.31464544  0.13517964  0.34452885     0.09300
C2235       C  0.31687647  0.13263089  0.33246395    -0.02300
C2236       C  0.32864716  0.13182079  0.32824648    -0.00500
C2237       C  0.33833596  0.13410573  0.33596777    -0.04100
C2238       C  0.33601404  0.13677419  0.34806554     0.02900
C2239       C  0.30211796  0.13647141  0.34880733     0.09700
C2240       C  0.30699137  0.13093778  0.32435219     0.35600
C2241       C  0.34561029  0.14003842  0.35602197     0.39000
C2242       C  0.29741252  0.14785790  0.35105083    -0.04500
C2243       C  0.28534824  0.14920460  0.35416639     0.02600
C2244       C  0.27773100  0.13917619  0.35462260    -0.04100
C2245       C  0.28260681  0.12771820  0.35262728    -0.00300
C2246       C  0.29478557  0.12639586  0.34998080    -0.02900
C2247       C  0.30498350  0.15823707  0.34992193     0.36400
C2248       C  0.27510056  0.11724421  0.35264444     0.40000
C2249       C  0.28093082  0.16094558  0.35711889     0.39100
C2250       C  0.29978341  0.11463901  0.34825022     0.36000
C2251       C  0.32196865  0.13890495  0.36490773     0.36700
C2252       C  0.33067183  0.12834388  0.31599965     0.40000
N2253       N  0.27749337  0.17034718  0.35945978    -0.38100
N2254       N  0.31106542  0.16647809  0.34903129    -0.39700
N2255       N  0.26919015  0.10882992  0.35264050    -0.37400
N2256       N  0.30377084  0.10526724  0.34687059    -0.39800
N2257       N  0.29907330  0.12957907  0.31793718    -0.39600
N2258       N  0.33219034  0.12556407  0.30621584    -0.37200
N2259       N  0.35322449  0.14272568  0.36238802    -0.38300
N2260       N  0.32015060  0.14042363  0.37491291    -0.39900
C2261       C  0.41370424  0.13015529  0.06245843    -0.04900
C2262       C  0.40626792  0.12591106  0.07158981     0.09300
C2263       C  0.40039023  0.11494168  0.07027291    -0.02300
C2264       C  0.40163153  0.10837620  0.05968114    -0.00500
C2265       C  0.40879974  0.11277974  0.05031154    -0.04100
C2266       C  0.41501349  0.12360358  0.05186760     0.02900
C2267       C  0.40422944  0.13324073  0.08244520     0.09700
C2268       C  0.39287164  0.11054869  0.07978518     0.35600
C2269       C  0.42298929  0.12791271  0.04270431     0.39000
C2270       C  0.39400375  0.14042259  0.08325508    -0.04500
C2271       C  0.39200441  0.14738067  0.09346244     0.02600
C2272       C  0.40024262  0.14717819  0.10295032    -0.04100
C2273       C  0.41049414  0.13994623  0.10210326    -0.00300
C2274       C  0.41247472  0.13301857  0.09185927    -0.02900
C2275       C  0.38556571  0.14066142  0.07351193     0.36400
C2276       C  0.41926390  0.13993875  0.11154522     0.40000
C2277       C  0.38131011  0.15453114  0.09426533     0.39100
C2278       C  0.42307166  0.12574897  0.09090843     0.36000
C2279       C  0.41989073  0.14136469  0.06394478     0.36700
C2280       C  0.39511491  0.09734012  0.05834045     0.40000
N2281       N  0.37277884  0.16023681  0.09486080    -0.38100
N2282       N  0.37885777  0.14080879  0.06572446    -0.39700
N2283       N  0.42626636  0.13991539  0.11907193    -0.37400
N2284       N  0.43154950  0.11999035  0.09011317    -0.39800
N2285       N  0.38686138  0.10709859  0.08738113    -0.39600
N2286       N  0.38992146  0.08852123  0.05735687    -0.37200
N2287       N  0.42936817  0.13136804  0.03541664    -0.38300
N2288       N  0.42482409  0.15029907  0.06517688    -0.39900
C2289       C  0.41141959  0.16404390  0.22010766    -0.04900
C2290       C  0.40289601  0.15623581  0.22494674     0.09300
C2291       C  0.39435291  0.15093470  0.21743922    -0.02300
C2292       C  0.39415251  0.15364174  0.20520346    -0.00500
C2293       C  0.40238092  0.16184451  0.20044073    -0.04100
C2294       C  0.41119068  0.16681339  0.20789620     0.02900
C2295       C  0.40271559  0.15374903  0.23801266     0.09700
C2296       C  0.38550312  0.14299212  0.22241230     0.35600
C2297       C  0.42019652  0.17460316  0.20295183     0.39000
C2298       C  0.39788693  0.16216403  0.24594870    -0.04500
C2299       C  0.39706314  0.15955394  0.25817535     0.02600
C2300       C  0.40083600  0.14838894  0.26253966    -0.04100
C2301       C  0.40596459  0.14009393  0.25460180    -0.00300
C2302       C  0.40702979  0.14284457  0.24241212    -0.02900
C2303       C  0.39367795  0.17349628  0.24148977     0.36400
C2304       C  0.40966409  0.12850440  0.25881805     0.40000
C2305       C  0.39258837  0.16851020  0.26629477     0.39100
C2306       C  0.41252830  0.13444674  0.23432767     0.36000
C2307       C  0.42031755  0.16937061  0.22775459     0.36700
C2308       C  0.38516571  0.14832558  0.19764824     0.40000
N2309       N  0.38906290  0.17567730  0.27276971    -0.38100
N2310       N  0.39037108  0.18254765  0.23792112    -0.39700
N2311       N  0.41259379  0.11922757  0.26212872    -0.37400
N2312       N  0.41694044  0.12780225  0.22783967    -0.39800
N2313       N  0.37843868  0.13667569  0.22639999    -0.39600
N2314       N  0.37802049  0.14403734  0.19162462    -0.37200
N2315       N  0.42739173  0.18077891  0.19897466    -0.38300
N2316       N  0.42737341  0.17368071  0.23386436    -0.39900
C2317       C  0.40290013  0.40523730  0.12873944    -0.04900
C2318       C  0.39905444  0.41541110  0.12255416     0.09300
C2319       C  0.38814912  0.41517037  0.11641063    -0.02300
C2320       C  0.38095040  0.40490156  0.11669202    -0.00500
C2321       C  0.38451731  0.39481440  0.12332950    -0.04100
C2322       C  0.39560307  0.39504922  0.12930725     0.02900
C2323       C  0.40599509  0.42673323  0.12337513     0.09700
C2324       C  0.38427723  0.42561359  0.10993695     0.35600
C2325       C  0.39924249  0.38514659  0.13669349     0.39000
C2326       C  0.41491179  0.42942658  0.11499018    -0.04500
C2327       C  0.42132719  0.44018810  0.11584222     0.02600
C2328       C  0.41873827  0.44839036  0.12501770    -0.04100
C2329       C  0.40983537  0.44560358  0.13344177    -0.00300
C2330       C  0.40352879  0.43481300  0.13262858    -0.02900
C2331       C  0.41735989  0.42116210  0.10541666     0.36400
C2332       C  0.40736126  0.45367102  0.14318445     0.40000
C2333       C  0.43033364  0.44295901  0.10705184     0.39100
C2334       C  0.39446154  0.43196507  0.14134142     0.36000
C2335       C  0.41430837  0.40537979  0.13473108     0.36700
C2336       C  0.36992937  0.40475411  0.11001649     0.40000
N2337       N  0.43752662  0.44515911  0.10003887    -0.38100
N2338       N  0.41928105  0.41457060  0.09776300    -0.39700
N2339       N  0.40537589  0.46009517  0.15096322    -0.37400
N2340       N  0.38722790  0.42963967  0.14826926    -0.39800
N2341       N  0.38121723  0.43396806  0.10479618    -0.39600
N2342       N  0.36113019  0.40469686  0.10469868    -0.37200
N2343       N  0.40214902  0.37729343  0.14265156    -0.38300
N2344       N  0.42344081  0.40549418  0.13944942    -0.39900
C2345       C  0.39143241  0.25747347  0.14363852    -0.04900
C2346       C  0.38098446  0.26057214  0.13747115     0.09300
C2347       C  0.37362406  0.25160637  0.13274837    -0.02300
C2348       C  0.37674440  0.23956401  0.13409084    -0.00500
C2349       C  0.38729107  0.23642027  0.14015791    -0.04100
C2350       C  0.39461009  0.24543501  0.14495916     0.02900
C2351       C  0.37761985  0.27332735  0.13609856     0.09700
C2352       C  0.36272454  0.25479665  0.12666339     0.35600
C2353       C  0.40555498  0.24237479  0.15103407     0.39000
C2354       C  0.38220335  0.28005206  0.12658285    -0.04500
C2355       C  0.37890699  0.29206639  0.12519757     0.02600
C2356       C  0.37083982  0.29737684  0.13325625    -0.04100
C2357       C  0.36649448  0.29063523  0.14296387    -0.00300
C2358       C  0.36984393  0.27865165  0.14432926    -0.02900
C2359       C  0.39011955  0.27447258  0.11807557     0.36400
C2360       C  0.35884584  0.29607663  0.15180039     0.40000
C2361       C  0.38356102  0.29879127  0.11524786     0.39100
C2362       C  0.36523874  0.27171510  0.15417290     0.36000
C2363       C  0.39883363  0.26671760  0.14872015     0.36700
C2364       C  0.36881913  0.23042091  0.12963672     0.40000
N2365       N  0.38735278  0.30412844  0.10732154    -0.38100
N2366       N  0.39639728  0.26995674  0.11129835    -0.39700
N2367       N  0.35275768  0.30037653  0.15888555    -0.37400
N2368       N  0.36157067  0.26613293  0.16198739    -0.39800
N2369       N  0.35400117  0.25732120  0.12184963    -0.39600
N2370       N  0.36250496  0.22311469  0.12610401    -0.37200
N2371       N  0.41428858  0.23995709  0.15588763    -0.38300
N2372       N  0.40469339  0.27411988  0.15278976    -0.39900
C2373       C  0.27860054  0.34923589  0.15222788    -0.04900
C2374       C  0.27089718  0.35699739  0.14615150     0.09300
C2375       C  0.27533549  0.36426517  0.13697293    -0.02300
C2376       C  0.28748366  0.36378752  0.13386852    -0.00500
C2377       C  0.29525210  0.35599518  0.13994411    -0.04100
C2378       C  0.29074461  0.34880562  0.14923524     0.02900
C2379       C  0.25818560  0.35782963  0.14987132     0.09700
C2380       C  0.26733531  0.37216678  0.13069530     0.35600
C2381       C  0.29865241  0.34129552  0.15610118     0.39000
C2382       C  0.25484693  0.36601287  0.15874012    -0.04500
C2383       C  0.24307636  0.36621755  0.16300148     0.02600
C2384       C  0.23461153  0.35804560  0.15857990    -0.04100
C2385       C  0.23792909  0.35001674  0.14948722    -0.00300
C2386       C  0.24966679  0.34999489  0.14508506    -0.02900
C2387       C  0.26364142  0.37406527  0.16363645     0.36400
C2388       C  0.22948170  0.34134030  0.14507335     0.40000
C2389       C  0.23966467  0.37499679  0.17180131     0.39100
C2390       C  0.25308242  0.34173834  0.13580018     0.36000
C2391       C  0.27398840  0.34172255  0.16163651     0.36700
C2392       C  0.29187874  0.37111696  0.12423203     0.40000
N2393       N  0.23696541  0.38203080  0.17879845    -0.38100
N2394       N  0.27070286  0.38044055  0.16753387    -0.39700
N2395       N  0.22275688  0.33439195  0.14157636    -0.37400
N2396       N  0.25579822  0.33516621  0.12837445    -0.39800
N2397       N  0.26091142  0.37844170  0.12569901    -0.39600
N2398       N  0.29535736  0.37699930  0.11655206    -0.37200
N2399       N  0.30494271  0.33532197  0.16161259    -0.38300
N2400       N  0.27027594  0.33571753  0.16910829    -0.39900
C2401       C  0.89782487  0.09248777  0.35720690    -0.04900
C2402       C  0.89661393  0.08444001  0.36674810     0.09300
C2403       C  0.88816343  0.08671161  0.37573464    -0.02300
C2404       C  0.88080071  0.09683304  0.37506845    -0.00500
C2405       C  0.88196243  0.10487123  0.36549457    -0.04100
C2406       C  0.89054547  0.10267966  0.35658771     0.02900
C2407       C  0.90377496  0.07321417  0.36699729     0.09700
C2408       C  0.88698479  0.07854468  0.38562623     0.35600
C2409       C  0.89153414  0.11062181  0.34649223     0.39000
C2410       C  0.91364907  0.07211156  0.37463647    -0.04500
C2411       C  0.92003767  0.06132973  0.37518070     0.02600
C2412       C  0.91687841  0.05169078  0.36773348    -0.04100
C2413       C  0.90717230  0.05296628  0.35983961    -0.00300
C2414       C  0.90050881  0.06357868  0.35967750    -0.02900
C2415       C  0.91719458  0.08208126  0.38198815     0.36400
C2416       C  0.90423721  0.04353944  0.35155796     0.40000
C2417       C  0.92952112  0.06003023  0.38380638     0.39100
C2418       C  0.89014594  0.06457061  0.35207685     0.36000
C2419       C  0.90647177  0.09015927  0.34793616     0.36700
C2420       C  0.87210090  0.09902479  0.38432411     0.40000
N2421       N  0.93705008  0.05896615  0.39072492    -0.38100
N2422       N  0.92005335  0.09002947  0.38784870    -0.39700
N2423       N  0.90190077  0.03608231  0.34487602    -0.37400
N2424       N  0.88184404  0.06541501  0.34607457    -0.39800
N2425       N  0.88610469  0.07205152  0.39354390    -0.39600
N2426       N  0.86512299  0.10075597  0.39167723    -0.37200
N2427       N  0.89228939  0.11692274  0.33840667    -0.38300
N2428       N  0.91334003  0.08824758  0.34052527    -0.39900
C2429       C  0.89919879  0.35567429  0.41683478    -0.04900
C2430       C  0.90677184  0.36564673  0.41674822     0.09300
C2431       C  0.91388935  0.36795545  0.40670170    -0.02300
C2432       C  0.91339815  0.36034323  0.39673497    -0.00500
C2433       C  0.90581653  0.35029551  0.39679539    -0.04100
C2434       C  0.89875697  0.34798566  0.40695397     0.02900
C2435       C  0.90735248  0.37353693  0.42743974     0.09700
C2436       C  0.92184912  0.37808498  0.40671840     0.35600
C2437       C  0.89081737  0.33783650  0.40722750     0.39000
C2438       C  0.91500445  0.37064697  0.43691809    -0.04500
C2439       C  0.91474834  0.37735346  0.44750454     0.02600
C2440       C  0.90690066  0.38710840  0.44864975    -0.04100
C2441       C  0.89953184  0.39023795  0.43895682    -0.00300
C2442       C  0.89970123  0.38340540  0.42842961    -0.02900
C2443       C  0.92300101  0.36060415  0.43581160     0.36400
C2444       C  0.89134695  0.40013034  0.43997794     0.40000
C2445       C  0.92267857  0.37425036  0.45717155     0.39100
C2446       C  0.89171923  0.38625587  0.41872771     0.36000
C2447       C  0.89182578  0.35336410  0.42715690     0.36700
C2448       C  0.92107683  0.36262530  0.38663520     0.40000
N2449       N  0.92899156  0.37174398  0.46488575    -0.38100
N2450       N  0.92936462  0.35258553  0.43489089    -0.39700
N2451       N  0.88480671  0.40802154  0.44076177    -0.37400
N2452       N  0.88532859  0.38846397  0.41098645    -0.39800
N2453       N  0.92822677  0.38614836  0.40673329    -0.39600
N2454       N  0.92720595  0.36444815  0.37858038    -0.37200
N2455       N  0.88452096  0.32971333  0.40751883    -0.38300
N2456       N  0.88595612  0.35157626  0.43540726    -0.39900
C2457       C  0.88131643  0.24678153  0.36640844    -0.04900
C2458       C  0.88744430  0.23721312  0.36114594     0.09300
C2459       C  0.89822800  0.23926008  0.35510195    -0.02300
C2460       C  0.90295018  0.25084292  0.35443656    -0.00500
C2461       C  0.89678484  0.26047456  0.35963974    -0.04100
C2462       C  0.88589421  0.25839241  0.36557486     0.02900
C2463       C  0.88231152  0.22499980  0.36177112     0.09700
C2464       C  0.90431798  0.22946035  0.34936640     0.35600
C2465       C  0.87903458  0.26822443  0.37030918     0.39000
C2466       C  0.87307049  0.22170955  0.35399123    -0.04500
C2467       C  0.86786648  0.21035604  0.35484054     0.02600
C2468       C  0.87177272  0.20225003  0.36362591    -0.04100
C2469       C  0.88104075  0.20561629  0.37143854    -0.00300
C2470       C  0.88635586  0.21691634  0.37042559    -0.02900
C2471       C  0.86891324  0.23007992  0.34511725     0.36400
C2472       C  0.88480191  0.19768714  0.38086786     0.40000
C2473       C  0.85873335  0.20696246  0.34640657     0.39100
C2474       C  0.89590039  0.22033144  0.37838789     0.36000
C2475       C  0.87013404  0.24466678  0.37247427     0.36700
C2476       C  0.91424724  0.25280367  0.34854017     0.40000
N2477       N  0.85144954  0.20430366  0.33965500    -0.38100
N2478       N  0.86559419  0.23680979  0.33809666    -0.39700
N2479       N  0.88779748  0.19140963  0.38843359    -0.37400
N2480       N  0.90354657  0.22307508  0.38468938    -0.39800
N2481       N  0.90914131  0.22164426  0.34474772    -0.39600
N2482       N  0.92326536  0.25436314  0.34384837    -0.37200
N2483       N  0.87351329  0.27604615  0.37405556    -0.38300
N2484       N  0.86119249  0.24294651  0.37725214    -0.39900
C2485       C  0.97242485  0.36314509  0.12849334    -0.04900
C2486       C  0.96588228  0.37383729  0.12862825     0.09300
C2487       C  0.96985982  0.38368542  0.12199629    -0.02300
C2488       C  0.98030207  0.38280547  0.11513903    -0.00500
C2489       C  0.98686069  0.37209755  0.11500064    -0.04100
C2490       C  0.98283639  0.36224374  0.12163656     0.02900
C2491       C  0.95454338  0.37441144  0.13545740     0.09700
C2492       C  0.96323836  0.39473026  0.12230002     0.35600
C2493       C  0.98912283  0.35100791  0.12105053     0.39000
C2494       C  0.95412675  0.38014743  0.14657859    -0.04500
C2495       C  0.94384717  0.37930790  0.15366621     0.02600
C2496       C  0.93405451  0.37241563  0.14980919    -0.04100
C2497       C  0.93432838  0.36711450  0.13840289    -0.00300
C2498       C  0.94446750  0.36832521  0.13118126    -0.02900
C2499       C  0.96436334  0.38672929  0.15082393     0.36400
C2500       C  0.92452878  0.35982693  0.13427687     0.40000
C2501       C  0.94332992  0.38570161  0.16485301     0.39100
C2502       C  0.94470278  0.36304958  0.11941215     0.36000
C2503       C  0.96838192  0.35304834  0.13542493     0.36700
C2504       C  0.98440079  0.39300338  0.10841539     0.40000
N2505       N  0.94290488  0.39080323  0.17377150    -0.38100
N2506       N  0.97249241  0.39203623  0.15421015    -0.39700
N2507       N  0.91676928  0.35397661  0.13091403    -0.37400
N2508       N  0.94494759  0.35887412  0.11001972    -0.39800
N2509       N  0.95801722  0.40357677  0.12262805    -0.39600
N2510       N  0.98765455  0.40111738  0.10300861    -0.37200
N2511       N  0.99406384  0.34200891  0.12055492    -0.38300
N2512       N  0.96508522  0.34502713  0.14094305    -0.39900
C2513       C  0.90851011  0.35579710  0.25816480    -0.04900
C2514       C  0.90292338  0.34563233  0.26286308     0.09300
C2515       C  0.89589798  0.33835406  0.25548154    -0.02300
C2516       C  0.89427050  0.34133979  0.24345747    -0.00500
C2517       C  0.89946959  0.35178581  0.23881488    -0.04100
C2518       C  0.90667325  0.35896691  0.24619351     0.02900
C2519       C  0.90399610  0.34272648  0.27572721     0.09700
C2520       C  0.89031692  0.32778798  0.26032077     0.35600
C2521       C  0.91178871  0.36988137  0.24164128     0.39000
C2522       C  0.89495319  0.34625118  0.28363929    -0.04500
C2523       C  0.89517399  0.34241052  0.29554288     0.02600
C2524       C  0.90458936  0.33516908  0.29963751    -0.04100
C2525       C  0.91388449  0.33202869  0.29175733    -0.00300
C2526       C  0.91357019  0.33581008  0.27983317    -0.02900
C2527       C  0.88532977  0.35371589  0.27942114     0.36400
C2528       C  0.92387505  0.32502828  0.29590779     0.40000
C2529       C  0.88536383  0.34541690  0.30334545     0.39100
C2530       C  0.92305420  0.33254703  0.27173415     0.36000
C2531       C  0.91607355  0.36300911  0.26570002     0.36700
C2532       C  0.88752528  0.33344757  0.23581245     0.40000
N2533       N  0.87749063  0.34780960  0.30951391    -0.38100
N2534       N  0.87770419  0.35970032  0.27600666    -0.39700
N2535       N  0.93183470  0.31941689  0.29919492    -0.37400
N2536       N  0.93064366  0.33000153  0.26527922    -0.39800
N2537       N  0.88585975  0.31938631  0.26421998    -0.39600
N2538       N  0.88217880  0.32712146  0.22972013    -0.37200
N2539       N  0.91582829  0.37861669  0.23802903    -0.38300
N2540       N  0.92217483  0.36870492  0.27170263    -0.39900
C2541       C  0.62496633  0.11418102  0.36351716    -0.04900
C2542       C  0.61500300  0.12149643  0.36147265     0.09300
C2543       C  0.61525648  0.12986015  0.35215374    -0.02300
C2544       C  0.62553119  0.13111861  0.34508234    -0.00500
C2545       C  0.63560708  0.12390762  0.34721683    -0.04100
C2546       C  0.63523005  0.11536040  0.35640952     0.02900
C2547       C  0.60419367  0.12039008  0.36914806     0.09700
C2548       C  0.60488098  0.13713577  0.34982579     0.35600
C2549       C  0.64525186  0.10749356  0.35832171     0.39000
C2550       C  0.60247950  0.12821858  0.37877828    -0.04500
C2551       C  0.59220847  0.12729609  0.38593216     0.02600
C2552       C  0.58355204  0.11847803  0.38350486    -0.04100
C2553       C  0.58544241  0.11051528  0.37393334    -0.00300
C2554       C  0.59568185  0.11152680  0.36676917    -0.02900
C2555       C  0.61132548  0.13725694  0.38128014     0.36400
C2556       C  0.57710248  0.10095696  0.37166225     0.40000
C2557       C  0.59046965  0.13567443  0.39556805     0.39100
C2558       C  0.59751406  0.10341623  0.35692001     0.36000
C2559       C  0.62458289  0.10536712  0.37290053     0.36700
C2560       C  0.62581794  0.14011575  0.33586297     0.40000
N2561       N  0.58916376  0.14236679  0.40326552    -0.38100
N2562       N  0.61840103  0.14445524  0.38323874    -0.39700
N2563       N  0.57047160  0.09331404  0.36983653    -0.37400
N2564       N  0.59901321  0.09694615  0.34907190    -0.39800
N2565       N  0.59658588  0.14290968  0.34795709    -0.39600
N2566       N  0.62603482  0.14729331  0.32850892    -0.37200
N2567       N  0.65322983  0.10118855  0.35982191    -0.38300
N2568       N  0.62422306  0.09830722  0.38035971    -0.39900
C2569       C  0.75092021  0.15343544  0.34128355    -0.04900
C2570       C  0.75577927  0.14336404  0.34692389     0.09300
C2571       C  0.74866094  0.13322001  0.34873941    -0.02300
C2572       C  0.73678725  0.13304299  0.34471338    -0.00500
C2573       C  0.73191804  0.14309333  0.33893669    -0.04100
C2574       C  0.73899874  0.15336557  0.33743542     0.02900
C2575       C  0.76853484  0.14339487  0.35065890     0.09700
C2576       C  0.75366170  0.12288547  0.35457544     0.35600
C2577       C  0.73394627  0.16400989  0.33222618     0.39000
C2578       C  0.77196844  0.14896702  0.36134340    -0.04500
C2579       C  0.78410329  0.14980945  0.36438931     0.02600
C2580       C  0.79286889  0.14487757  0.35685439    -0.04100
C2581       C  0.78935583  0.13894549  0.34634313    -0.00300
C2582       C  0.77723360  0.13825023  0.34325147    -0.02900
C2583       C  0.76296087  0.15375970  0.36921745     0.36400
C2584       C  0.79822002  0.13396731  0.33841914     0.40000
C2585       C  0.78753292  0.15556812  0.37539465     0.39100
C2586       C  0.77368093  0.13239047  0.33233481     0.36000
C2587       C  0.75830570  0.16379954  0.33924012     0.36700
C2588       C  0.72978288  0.12231896  0.34611171     0.40000
N2589       N  0.79024927  0.16017015  0.38417869    -0.38100
N2590       N  0.75573943  0.15752058  0.37549815    -0.39700
N2591       N  0.80528301  0.12998627  0.33209352    -0.37400
N2592       N  0.77081364  0.12769552  0.32364953    -0.39800
N2593       N  0.75767451  0.11463664  0.35920547    -0.39600
N2594       N  0.72420675  0.11375482  0.34723605    -0.37200
N2595       N  0.72991524  0.17253128  0.32813430    -0.38300
N2596       N  0.76424133  0.17202836  0.33758480    -0.39900
C2597       C  0.67924501  0.41572928  0.14692224    -0.04900
C2598       C  0.67076092  0.41562403  0.13771137     0.09300
C2599       C  0.66991453  0.40571189  0.13011922    -0.02300
C2600       C  0.67779627  0.39608403  0.13145322    -0.00500
C2601       C  0.68632537  0.39612318  0.14070391    -0.04100
C2602       C  0.68693271  0.40596631  0.14850109     0.02900
C2603       C  0.66319262  0.42629153  0.13551773     0.09700
C2604       C  0.66098491  0.40551965  0.12082798     0.35600
C2605       C  0.69531152  0.40600326  0.15829065     0.39000
C2606       C  0.66681612  0.43479798  0.12708508    -0.04500
C2607       C  0.65986162  0.44499411  0.12506221     0.02600
C2608       C  0.64933260  0.44690616  0.13167405    -0.04100
C2609       C  0.64550197  0.43812369  0.13983807    -0.00300
C2610       C  0.65246713  0.42788222  0.14178245    -0.02900
C2611       C  0.67785825  0.43311944  0.12063818     0.36400
C2612       C  0.63460607  0.43970466  0.14653478     0.40000
C2613       C  0.66339895  0.45332472  0.11588647     0.39100
C2614       C  0.64876310  0.41907308  0.15042495     0.36000
C2615       C  0.68012732  0.42598220  0.15467959     0.36700
C2616       C  0.67750956  0.38648015  0.12285992     0.40000
N2617       N  0.66621359  0.45992173  0.10852274    -0.38100
N2618       N  0.68669258  0.43175548  0.11555540    -0.39700
N2619       N  0.62587475  0.44087072  0.15184400    -0.37400
N2620       N  0.64585078  0.41206491  0.15735737    -0.39800
N2621       N  0.65382581  0.40536478  0.11345357    -0.39600
N2622       N  0.67730881  0.37886556  0.11595316    -0.37200
N2623       N  0.70198467  0.40605120  0.16611072    -0.38300
N2624       N  0.68081612  0.43418403  0.16083968    -0.39900
C2625       C  0.79628816  0.36898562  0.14473242    -0.04900
C2626       C  0.80146765  0.36099207  0.15283313     0.09300
C2627       C  0.79461629  0.35183755  0.15790816    -0.02300
C2628       C  0.78250599  0.35075326  0.15501229    -0.00500
C2629       C  0.77724287  0.35878508  0.14690561    -0.04100
C2630       C  0.78421630  0.36782639  0.14167842     0.02900
C2631       C  0.81410078  0.36241725  0.15639321     0.09700
C2632       C  0.80004156  0.34367815  0.16628565     0.35600
C2633       C  0.77908497  0.37572323  0.13289059     0.39000
C2634       C  0.81695309  0.36945694  0.16633012    -0.04500
C2635       C  0.82880533  0.37032526  0.17016709     0.02600
C2636       C  0.83784386  0.36398479  0.16416710    -0.04100
C2637       C  0.83498471  0.35717503  0.15398930    -0.00300
C2638       C  0.82310690  0.35638299  0.15014217    -0.02900
C2639       C  0.80760704  0.37561075  0.17273563     0.36400
C2640       C  0.84412372  0.35058755  0.14772272     0.40000
C2641       C  0.83169201  0.37797223  0.18013833     0.39100
C2642       C  0.82005364  0.34909411  0.13995672     0.36000
C2643       C  0.80338812  0.37847019  0.13966419     0.36700
C2644       C  0.77542057  0.34164482  0.16075487     0.40000
N2645       N  0.83398218  0.38408639  0.18808125    -0.38100
N2646       N  0.80012254  0.38046304  0.17784907    -0.39700
N2647       N  0.85138500  0.34534367  0.14267018    -0.37400
N2648       N  0.81758580  0.34325347  0.13186312    -0.39800
N2649       N  0.80442551  0.33721447  0.17296449    -0.39600
N2650       N  0.76982122  0.33436411  0.16537483    -0.37200
N2651       N  0.77500564  0.38199080  0.12584229    -0.38300
N2652       N  0.80906408  0.38605672  0.13567592    -0.39900
C2653       C  0.64858059  0.13553851  0.06234750    -0.04900
C2654       C  0.65624777  0.13218291  0.07165742     0.09300
C2655       C  0.66316929  0.12180282  0.07059931    -0.02300
C2656       C  0.66238111  0.11473904  0.06028121    -0.00500
C2657       C  0.65472250  0.11809060  0.05089687    -0.04100
C2658       C  0.64782891  0.12854521  0.05198279     0.02900
C2659       C  0.65718527  0.13974923  0.08252014     0.09700
C2660       C  0.67120718  0.11849064  0.08010922     0.35600
C2661       C  0.63970253  0.13198349  0.04259510     0.39000
C2662       C  0.64870368  0.13870801  0.09168249    -0.04500
C2663       C  0.64941386  0.14608537  0.10178579     0.02600
C2664       C  0.65879426  0.15437511  0.10290740    -0.04100
C2665       C  0.66734819  0.15531464  0.09371550    -0.00300
C2666       C  0.66646694  0.14808841  0.08352926    -0.02900
C2667       C  0.63923762  0.13002235  0.09067180     0.36400
C2668       C  0.67728305  0.16345780  0.09480650     0.40000
C2669       C  0.64019501  0.14546030  0.11077465     0.39100
C2670       C  0.67512044  0.14920927  0.07403442     0.36000
C2671       C  0.64149641  0.14624605  0.06346207     0.36700
C2672       C  0.66976582  0.10423690  0.05919943     0.40000
N2673       N  0.63279947  0.14500220  0.11790642    -0.38100
N2674       N  0.63170782  0.12307025  0.08985119    -0.39700
N2675       N  0.68520792  0.16995948  0.09562573    -0.37400
N2676       N  0.68201054  0.15008329  0.06645134    -0.39800
N2677       N  0.67765388  0.11590249  0.08768396    -0.39600
N2678       N  0.67565678  0.09585569  0.05835830    -0.37200
N2679       N  0.63321776  0.13476506  0.03512115    -0.38300
N2680       N  0.63585213  0.15478347  0.06440735    -0.39900
C2681       C  0.67012136  0.16786235  0.22160160    -0.04900
C2682       C  0.67100711  0.15555790  0.22378890     0.09300
C2683       C  0.67162297  0.14758398  0.21414917    -0.02300
C2684       C  0.67209610  0.15190766  0.20240361    -0.00500
C2685       C  0.67104684  0.16425224  0.20012623    -0.04100
C2686       C  0.66969219  0.17216019  0.20984679     0.02900
C2687       C  0.67181643  0.15106613  0.23628048     0.09700
C2688       C  0.67193809  0.13488923  0.21636304     0.35600
C2689       C  0.66749043  0.18470322  0.20787866     0.39000
C2690       C  0.66188640  0.15169506  0.24391002    -0.04500
C2691       C  0.66304297  0.14868503  0.25602099     0.02600
C2692       C  0.67399934  0.14431600  0.26042906    -0.04100
C2693       C  0.68360702  0.14270569  0.25247040    -0.00300
C2694       C  0.68265613  0.14647569  0.24058337    -0.02900
C2695       C  0.65047970  0.15551166  0.23927257     0.36400
C2696       C  0.69436906  0.13676324  0.25634319     0.40000
C2697       C  0.65306202  0.15062679  0.26394218     0.39100
C2698       C  0.69292451  0.14580188  0.23280627     0.36000
C2699       C  0.66991646  0.17614716  0.23148868     0.36700
C2700       C  0.67433897  0.14360862  0.19280438     0.40000
N2701       N  0.64506115  0.15221760  0.27020714    -0.38100
N2702       N  0.64137760  0.15850976  0.23555358    -0.39700
N2703       N  0.70291677  0.13192537  0.25937519    -0.37400
N2704       N  0.70109038  0.14524772  0.22658027    -0.39800
N2705       N  0.67220139  0.12477556  0.21816665    -0.39600
N2706       N  0.67620444  0.13693378  0.18520797    -0.37200
N2707       N  0.66568724  0.19471321  0.20639447    -0.38300
N2708       N  0.66979371  0.18273519  0.23938237    -0.39900
C2709       C  0.68127031  0.25973144  0.13776308    -0.04900
C2710       C  0.69331378  0.26314101  0.13816545     0.09300
C2711       C  0.70224613  0.25447934  0.13954792    -0.02300
C2712       C  0.69913586  0.24241568  0.14066571    -0.00500
C2713       C  0.68706900  0.23898312  0.14039427    -0.04100
C2714       C  0.67814531  0.24765683  0.13875641     0.02900
C2715       C  0.69660409  0.27591883  0.13720039     0.09700
C2716       C  0.71463211  0.25803071  0.13985339     0.35600
C2717       C  0.66573218  0.24421132  0.13833012     0.39000
C2718       C  0.69734780  0.28296478  0.14752993    -0.04500
C2719       C  0.70049251  0.29503202  0.14664935     0.02600
C2720       C  0.70298840  0.30005000  0.13543357    -0.04100
C2721       C  0.70231409  0.29298140  0.12510530    -0.00300
C2722       C  0.69906823  0.28093058  0.12598597    -0.02900
C2723       C  0.69506861  0.27771138  0.15907121     0.36400
C2724       C  0.70487069  0.29813966  0.11357779     0.40000
C2725       C  0.70154175  0.30219268  0.15731771     0.39100
C2726       C  0.69833898  0.27362991  0.11539347     0.36000
C2727       C  0.67211230  0.26870647  0.13649987     0.36700
C2728       C  0.70837534  0.23349453  0.14168320     0.40000
N2729       N  0.70241146  0.30792347  0.16580989    -0.38100
N2730       N  0.69329026  0.27349460  0.16827515    -0.39700
N2731       N  0.70690675  0.30225740  0.10438115    -0.37400
N2732       N  0.69775948  0.26777239  0.10696373    -0.39800
N2733       N  0.72450326  0.26089879  0.14009584    -0.39600
N2734       N  0.71574145  0.22636521  0.14242694    -0.37200
N2735       N  0.65582790  0.24147471  0.13793221    -0.38300
N2736       N  0.66483430  0.27590048  0.13554494    -0.39900
C2737       C  0.39735978  0.87914835  0.07595166    -0.04900
C2738       C  0.40324189  0.86823808  0.07767772     0.09300
C2739       C  0.41094308  0.86386354  0.06882323    -0.02300
C2740       C  0.41287370  0.87042367  0.05832218    -0.00500
C2741       C  0.40693726  0.88137046  0.05649173    -0.04100
C2742       C  0.39920551  0.88572146  0.06542909     0.02900
C2743       C  0.40153223  0.86138405  0.08894217     0.09700
C2744       C  0.41678658  0.85250228  0.07051005     0.35600
C2745       C  0.39275882  0.89673316  0.06368466     0.39000
C2746       C  0.39282520  0.85240822  0.08961367    -0.04500
C2747       C  0.39178208  0.84540515  0.09995837     0.02600
C2748       C  0.39945652  0.84734560  0.10973763    -0.04100
C2749       C  0.40786937  0.85667826  0.10919192    -0.00300
C2750       C  0.40893125  0.86361288  0.09879984    -0.02900
C2751       C  0.38499960  0.85034301  0.07958739     0.36400
C2752       C  0.41578334  0.85889798  0.11911112     0.40000
C2753       C  0.38260613  0.83637630  0.10060593     0.39100
C2754       C  0.41783675  0.87290298  0.09809849     0.36000
C2755       C  0.38917714  0.88345428  0.08492775     0.36700
C2756       C  0.42124541  0.86599613  0.04957191     0.40000
N2757       N  0.37527878  0.82918117  0.10112420    -0.38100
N2758       N  0.37875380  0.84871315  0.07158650    -0.39700
N2759       N  0.42209480  0.86072857  0.12701747    -0.37400
N2760       N  0.42493815  0.88031110  0.09747690    -0.39800
N2761       N  0.42136932  0.84340439  0.07186576    -0.39600
N2762       N  0.42793601  0.86242361  0.04262602    -0.37200
N2763       N  0.38762560  0.90553411  0.06233210    -0.38300
N2764       N  0.38260024  0.88684981  0.09206513    -0.39900
C2765       C  0.43869504  0.86381475  0.37411086    -0.04900
C2766       C  0.44759766  0.87241542  0.37217275     0.09300
C2767       C  0.44639529  0.88060432  0.36276411    -0.02300
C2768       C  0.43641705  0.88010448  0.35521469    -0.00500
C2769       C  0.42756307  0.87138415  0.35702118    -0.04100
C2770       C  0.42873518  0.86324731  0.36652980     0.02900
C2771       C  0.45851104  0.87263569  0.37974825     0.09700
C2772       C  0.45550977  0.88951091  0.36082597     0.35600
C2773       C  0.41998474  0.85393465  0.36822653     0.39000
C2774       C  0.46781456  0.86455224  0.37751816    -0.04500
C2775       C  0.47850427  0.86531702  0.38399496     0.02600
C2776       C  0.48004839  0.87431320  0.39264445    -0.04100
C2777       C  0.47050880  0.88210248  0.39519751    -0.00300
C2778       C  0.45977534  0.88123851  0.38876916    -0.02900
C2779       C  0.46643302  0.85555423  0.36838997     0.36400
C2780       C  0.47183710  0.89132461  0.40409600     0.40000
C2781       C  0.48779111  0.85662348  0.38192948     0.39100
C2782       C  0.45006228  0.88933618  0.39125488     0.36000
C2783       C  0.43986105  0.85548095  0.38386327     0.36700
C2784       C  0.43518402  0.88872600  0.34572034     0.40000
N2785       N  0.49517682  0.84966164  0.38029714    -0.38100
N2786       N  0.46529640  0.84837478  0.36111910    -0.39700
N2787       N  0.47284146  0.89868789  0.41120188    -0.37400
N2788       N  0.44229514  0.89578892  0.39318231    -0.39800
N2789       N  0.46278105  0.89662616  0.35934232    -0.39600
N2790       N  0.43422249  0.89560878  0.33814888    -0.37200
N2791       N  0.41301979  0.84648842  0.36955753    -0.38300
N2792       N  0.44079180  0.84881983  0.39163323    -0.39900
C2793       C  0.40035785  0.83816035  0.25270195    -0.04900
C2794       C  0.39347195  0.84393446  0.24396491     0.09300
C2795       C  0.38590610  0.85336469  0.24723931    -0.02300
C2796       C  0.38511124  0.85692602  0.25921893    -0.00500
C2797       C  0.39177374  0.85096696  0.26803023    -0.04100
C2798       C  0.39950191  0.84164688  0.26471377     0.02900
C2799       C  0.39393342  0.83987695  0.23131801     0.09700
C2800       C  0.37878673  0.85925833  0.23826832     0.35600
C2801       C  0.40618947  0.83529562  0.27370832     0.39000
C2802       C  0.38692254  0.83019517  0.22760690    -0.04500
C2803       C  0.38721886  0.82639682  0.21566542     0.02600
C2804       C  0.39475509  0.83212443  0.20734502    -0.04100
C2805       C  0.40171052  0.84192043  0.21112770    -0.00300
C2806       C  0.40120058  0.84582288  0.22303833    -0.02900
C2807       C  0.37928980  0.82422591  0.23611602     0.36400
C2808       C  0.40972411  0.84780477  0.20293255     0.40000
C2809       C  0.37937635  0.81687539  0.21192772     0.39100
C2810       C  0.40817099  0.85597813  0.22683344     0.36000
C2811       C  0.40815616  0.82847710  0.24932827     0.36700
C2812       C  0.37759007  0.86688217  0.26244190     0.40000
N2813       N  0.37308181  0.80928850  0.20900378    -0.38100
N2814       N  0.37323081  0.81948471  0.24293706    -0.39700
N2815       N  0.41612598  0.85254989  0.19643353    -0.37400
N2816       N  0.41366548  0.86411541  0.22988065    -0.39800
N2817       N  0.37310447  0.86392557  0.23108994    -0.39600
N2818       N  0.37162652  0.87485024  0.26501476    -0.37200
N2819       N  0.41149911  0.83022049  0.28089722    -0.38300
N2820       N  0.41435530  0.82073247  0.24663433    -0.39900
C2821       C  0.16158530  0.91005560  0.36592114    -0.04900
C2822       C  0.16514809  0.91918842  0.37372495     0.09300
C2823       C  0.17586918  0.91811940  0.38010450    -0.02300
C2824       C  0.18312334  0.90805717  0.37856464    -0.00500
C2825       C  0.17969260  0.89895784  0.37061109    -0.04100
C2826       C  0.16883067  0.89993742  0.36437319     0.02900
C2827       C  0.15791307  0.93023151  0.37500551     0.09700
C2828       C  0.17944397  0.92744959  0.38825155     0.35600
C2829       C  0.16529566  0.89074701  0.35605932     0.39000
C2830       C  0.14992144  0.93147503  0.38457671    -0.04500
C2831       C  0.14410657  0.94240343  0.38653495     0.02600
C2832       C  0.14638917  0.95218638  0.37899955    -0.04100
C2833       C  0.15421750  0.95081847  0.36926238    -0.00300
C2834       C  0.15984498  0.93982949  0.36720629    -0.02900
C2835       C  0.14789058  0.92154293  0.39252406     0.36400
C2836       C  0.15642945  0.96067435  0.36126553     0.40000
C2837       C  0.13618465  0.94371175  0.39661559     0.39100
C2838       C  0.16772550  0.93837914  0.35710612     0.36000
C2839       C  0.15052035  0.91115906  0.35942119     0.36700
C2840       C  0.19398718  0.90697569  0.38541919     0.40000
N2841       N  0.12988069  0.94474525  0.40467463    -0.38100
N2842       N  0.14630877  0.91359991  0.39885152    -0.39700
N2843       N  0.15824624  0.96854470  0.35490982    -0.37400
N2844       N  0.17395637  0.93715766  0.34901749    -0.39800
N2845       N  0.18225919  0.93489009  0.39476256    -0.39600
N2846       N  0.20266119  0.90611756  0.39086946    -0.37200
N2847       N  0.16247817  0.88342351  0.34941435    -0.38300
N2848       N  0.14169095  0.91205269  0.35423295    -0.39900
C2849       C  0.28880385  0.87237583  0.35969014    -0.04900
C2850       C  0.29398304  0.86318384  0.35296200     0.09300
C2851       C  0.28702379  0.85350120  0.34919162    -0.02300
C2852       C  0.27493369  0.85286099  0.35233024    -0.00500
C2853       C  0.26973541  0.86187625  0.35942204    -0.04100
C2854       C  0.27671501  0.87173726  0.36294662     0.02900
C2855       C  0.30680056  0.86370266  0.34967112     0.09700
C2856       C  0.29233064  0.84424318  0.34194920     0.35600
C2857       C  0.27161997  0.88109982  0.37018357     0.39000
C2858       C  0.31533723  0.85795595  0.35679879    -0.04500
C2859       C  0.32731924  0.85758888  0.35317025     0.02600
C2860       C  0.33086732  0.86334230  0.34257634    -0.04100
C2861       C  0.32235301  0.86962100  0.33578923    -0.00300
C2862       C  0.31031451  0.86954061  0.33918200    -0.02900
C2863       C  0.31171055  0.85228019  0.36778583     0.36400
C2864       C  0.32599212  0.87650287  0.32551761     0.40000
C2865       C  0.33583606  0.85082907  0.36007832     0.39100
C2866       C  0.30146426  0.87526505  0.33177164     0.36000
C2867       C  0.29598202  0.88246835  0.36325916     0.36700
C2868       C  0.26780339  0.84310749  0.34783039     0.40000
N2869       N  0.34259844  0.84538986  0.36558478    -0.38100
N2870       N  0.30879604  0.84780832  0.37657137    -0.39700
N2871       N  0.32889470  0.88206821  0.31737617    -0.37400
N2872       N  0.29437059  0.87974871  0.32583965    -0.39800
N2873       N  0.29657696  0.83688410  0.33616040    -0.39600
N2874       N  0.26215196  0.83531161  0.34422348    -0.37200
N2875       N  0.26761164  0.88862692  0.37592786    -0.38300
N2876       N  0.30175134  0.89050979  0.36604290    -0.39900
C2877       C  0.39762286  0.58834629  0.12886568    -0.04900
C2878       C  0.39495378  0.57830029  0.13584666     0.09300
C2879       C  0.38518750  0.57860389  0.14368197    -0.02300
C2880       C  0.37809993  0.58890527  0.14455470    -0.00500
C2881       C  0.38066396  0.59899918  0.13747820    -0.04100
C2882       C  0.39048973  0.59863636  0.12961566     0.02900
C2883       C  0.40232410  0.56727274  0.13480510     0.09700
C2884       C  0.38241328  0.56823723  0.15081538     0.35600
C2885       C  0.39302033  0.60863439  0.12189766     0.39000
C2886       C  0.41169030  0.56516990  0.14283597    -0.04500
C2887       C  0.41843144  0.55462142  0.14206284     0.02600
C2888       C  0.41600707  0.54615481  0.13304797    -0.04100
C2889       C  0.40670434  0.54844081  0.12487093    -0.00300
C2890       C  0.39983148  0.55888514  0.12585006    -0.02900
C2891       C  0.41433450  0.57389159  0.15195080     0.36400
C2892       C  0.40438476  0.54028601  0.11516706     0.40000
C2893       C  0.42754627  0.55235838  0.15088116     0.39100
C2894       C  0.39012070  0.56103841  0.11765483     0.36000
C2895       C  0.40768544  0.58801090  0.12081722     0.36700
C2896       C  0.36835210  0.58913835  0.15298943     0.40000
N2897       N  0.43480787  0.55059886  0.15794168    -0.38100
N2898       N  0.41643898  0.58087121  0.15920039    -0.39700
N2899       N  0.40249357  0.53382950  0.10739102    -0.37400
N2900       N  0.38235129  0.56279923  0.11115975    -0.39800
N2901       N  0.38020994  0.55995654  0.15649030    -0.39600
N2902       N  0.36056367  0.58927510  0.15970541    -0.37200
N2903       N  0.39505555  0.61658190  0.11570487    -0.38300
N2904       N  0.41571593  0.58770266  0.11440153    -0.39900
C2905       C  0.36940038  0.71683255  0.15406228    -0.04900
C2906       C  0.37749001  0.72051145  0.14523057     0.09300
C2907       C  0.38148033  0.71232413  0.13663730    -0.02300
C2908       C  0.37740732  0.70047417  0.13686129    -0.00500
C2909       C  0.36922996  0.69675831  0.14566363    -0.04100
C2910       C  0.36530445  0.70499603  0.15431673     0.02900
C2911       C  0.38190008  0.73303922  0.14511889     0.09700
C2912       C  0.38964085  0.71618023  0.12744240     0.35600
C2913       C  0.35730564  0.70125178  0.16370824     0.39000
C2914       C  0.39197221  0.73617639  0.15185845    -0.04500
C2915       C  0.39571220  0.74811654  0.15241502     0.02600
C2916       C  0.38935747  0.75704003  0.14625510    -0.04100
C2917       C  0.37944596  0.75379751  0.13921553    -0.00300
C2918       C  0.37574442  0.74182763  0.13866907    -0.02900
C2919       C  0.39836592  0.72708911  0.15837586     0.36400
C2920       C  0.37265707  0.76279905  0.13299185     0.40000
C2921       C  0.40621649  0.75116775  0.15923054     0.39100
C2922       C  0.36539976  0.73854548  0.13171792     0.36000
C2923       C  0.36525123  0.72530596  0.16284854     0.36700
C2924       C  0.38133981  0.69224608  0.12775570     0.40000
N2925       N  0.41459631  0.75358882  0.16467312    -0.38100
N2926       N  0.40342855  0.71981384  0.16357456    -0.39700
N2927       N  0.36720835  0.76995134  0.12801425    -0.37400
N2928       N  0.35714251  0.73588640  0.12620002    -0.39800
N2929       N  0.39611371  0.71926464  0.12007348    -0.39600
N2930       N  0.38448868  0.68566514  0.12050970    -0.37200
N2931       N  0.35094594  0.69830151  0.17123186    -0.38300
N2932       N  0.36195052  0.73211154  0.16981317    -0.39900
C2933       C  0.15971476  0.64855749  0.42443968    -0.04900
C2934       C  0.16703723  0.63845853  0.42550287     0.09300
C2935       C  0.17500483  0.63554688  0.41628300    -0.02300
C2936       C  0.17572153  0.64276308  0.40605671    -0.00500
C2937       C  0.16837586  0.65290241  0.40494237    -0.04100
C2938       C  0.16036715  0.65576352  0.41421183     0.02900
C2939       C  0.16632866  0.63089919  0.43640550     0.09700
C2940       C  0.18244281  0.62508395  0.41734135     0.35600
C2941       C  0.15251802  0.66592004  0.41312835     0.39000
C2942       C  0.15758004  0.62198679  0.43729771    -0.04500
C2943       C  0.15650141  0.61524764  0.44779872     0.02600
C2944       C  0.16452460  0.61701689  0.45731896    -0.04100
C2945       C  0.17337425  0.62590959  0.45634185    -0.00300
C2946       C  0.17414800  0.63292289  0.44597881    -0.02900
C2947       C  0.14964977  0.61980126  0.42738051     0.36400
C2948       C  0.18189355  0.62770690  0.46584103     0.40000
C2949       C  0.14671291  0.60694955  0.44900773     0.39100
C2950       C  0.18293768  0.64231374  0.44515484     0.36000
C2951       C  0.15143651  0.65145515  0.43389028     0.36700
C2952       C  0.18433916  0.63996273  0.39688989     0.40000
N2953       N  0.13883939  0.60041377  0.45001802    -0.38100
N2954       N  0.14336529  0.61803323  0.41944035    -0.39700
N2955       N  0.18871548  0.62917894  0.47339115    -0.37400
N2956       N  0.18990162  0.64984675  0.44447541    -0.39800
N2957       N  0.18835611  0.61672136  0.41819017    -0.39600
N2958       N  0.19123986  0.63774450  0.38959447    -0.37200
N2959       N  0.14624478  0.67401998  0.41230658    -0.38300
N2960       N  0.14482995  0.65369958  0.44144406    -0.39900
C2961       C  0.17558985  0.76079674  0.37248472    -0.04900
C2962       C  0.18536061  0.76564683  0.36631242     0.09300
C2963       C  0.19214542  0.75835724  0.35869784    -0.02300
C2964       C  0.18923583  0.74624346  0.35733180    -0.00500
C2965       C  0.17964540  0.74127622  0.36377371    -0.04100
C2966       C  0.17281628  0.74863222  0.37133528     0.02900
C2967       C  0.18879515  0.77834937  0.36820475     0.09700
C2968       C  0.20231133  0.76328897  0.35248806     0.35600
C2969       C  0.16278330  0.74376234  0.37779334     0.39000
C2970       C  0.19485069  0.78169100  0.37866771    -0.04500
C2971       C  0.19829667  0.79359854  0.38042371     0.02600
C2972       C  0.19576562  0.80223246  0.37169594    -0.04100
C2973       C  0.18955733  0.79892398  0.36129350    -0.00300
C2974       C  0.18606761  0.78701282  0.35956793    -0.02900
C2975       C  0.19756955  0.77282571  0.38760895     0.36400
C2976       C  0.18707856  0.80769241  0.35218491     0.40000
C2977       C  0.20418515  0.79702803  0.39136247     0.39100
C2978       C  0.17970475  0.78363874  0.34888464     0.36000
C2979       C  0.16840532  0.76837835  0.38003788     0.36700
C2980       C  0.19643873  0.73881820  0.34964167     0.40000
N2981       N  0.20882770  0.79977859  0.40011318    -0.38100
N2982       N  0.19967682  0.76573176  0.39473820    -0.39700
N2983       N  0.18511260  0.81470422  0.34493280    -0.37400
N2984       N  0.17464908  0.78094888  0.34034693    -0.39800
N2985       N  0.21042212  0.76723665  0.34755114    -0.39600
N2986       N  0.20218272  0.73291366  0.34348679    -0.37200
N2987       N  0.15479235  0.73989567  0.38298314    -0.38300
N2988       N  0.16270954  0.77446902  0.38605229    -0.39900
C2989       C  0.11464082  0.62720217  0.15264196    -0.04900
C2990       C  0.11322532  0.63420710  0.14234898     0.09300
C2991       C  0.12193495  0.64271681  0.13936640    -0.02300
C2992       C  0.13208983  0.64412274  0.14657510    -0.00500
C2993       C  0.13354264  0.63708475  0.15686127    -0.04100
C2994       C  0.12468121  0.62874132  0.15996866     0.02900
C2995       C  0.10227660  0.63291023  0.13493644     0.09700
C2996       C  0.12036953  0.65008554  0.12891873     0.35600
C2997       C  0.12591176  0.62163859  0.17064647     0.39000
C2998       C  0.09286319  0.64107260  0.13625340    -0.04500
C2999       C  0.08225433  0.63953155  0.12979541     0.02600
C3000       C  0.08098387  0.62979383  0.12196438    -0.04100
C3001       C  0.09048763  0.62172135  0.12051012    -0.00300
C3002       C  0.10111890  0.62330263  0.12696094    -0.02900
C3003       C  0.09408726  0.65102786  0.14434773     0.36400
C3004       C  0.08915458  0.61149597  0.11277946     0.40000
C3005       C  0.07271957  0.64810836  0.13108562     0.39100
C3006       C  0.11084708  0.61498132  0.12551142     0.36000
C3007       C  0.10573313  0.61838586  0.15566430     0.36700
C3008       C  0.14079946  0.65316855  0.14368239     0.40000
N3009       N  0.06510495  0.65493590  0.13212336    -0.38100
N3010       N  0.09510480  0.65899152  0.15076871    -0.39700
N3011       N  0.08807353  0.60331278  0.10664905    -0.37400
N3012       N  0.11860982  0.60833816  0.12438260    -0.39800
N3013       N  0.11906961  0.65599847  0.12061432    -0.39600
N3014       N  0.14772041  0.66042879  0.14142505    -0.37200
N3015       N  0.12682367  0.61602815  0.17920971    -0.38300
N3016       N  0.09865138  0.61130433  0.15799007    -0.39900
C3017       C  0.25134413  0.62433858  0.16821474    -0.04900
C3018       C  0.25536475  0.63419896  0.16161385     0.09300
C3019       C  0.24729422  0.64323573  0.15841681    -0.02300
C3020       C  0.23527949  0.64250037  0.16192504    -0.00500
C3021       C  0.23130224  0.63279335  0.16883060    -0.04100
C3022       C  0.23934738  0.62362702  0.17180063     0.02900
C3023       C  0.26816559  0.63521414  0.15815044     0.09700
C3024       C  0.25146544  0.65343117  0.15172833     0.35600
C3025       C  0.23521397  0.61332256  0.17833258     0.39000
C3026       C  0.27247542  0.62919832  0.14803749    -0.04500
C3027       C  0.28441019  0.63062293  0.14445251     0.02600
C3028       C  0.29215173  0.63802927  0.15102918    -0.04100
C3029       C  0.28783856  0.64387629  0.16130607    -0.00300
C3030       C  0.27589613  0.64246714  0.16482701    -0.02900
C3031       C  0.26455545  0.62161625  0.14126960     0.36400
C3032       C  0.29572650  0.65110410  0.16850094     0.40000
C3033       C  0.28856115  0.62481058  0.13372360     0.39100
C3034       C  0.27153711  0.64843519  0.17539092     0.36000
C3035       C  0.25962868  0.61503193  0.17147411     0.36700
C3036       C  0.22712906  0.65194963  0.15873947     0.40000
N3037       N  0.29185216  0.62018665  0.12514832    -0.38100
N3038       N  0.25822604  0.61553289  0.13591931    -0.39700
N3039       N  0.30200010  0.65689364  0.17423351    -0.37400
N3040       N  0.26806078  0.65319515  0.18381598    -0.39800
N3041       N  0.25486674  0.66157900  0.14646563    -0.39600
N3042       N  0.22064146  0.65948743  0.15614874    -0.37200
N3043       N  0.23189425  0.60507356  0.18348848    -0.38300
N3044       N  0.26626092  0.60762061  0.17406247    -0.39900
C3045       C  0.15970343  0.65333462  0.28969507    -0.04900
C3046       C  0.16991951  0.65594661  0.28289941     0.09300
C3047       C  0.17951512  0.66201312  0.28820292    -0.02300
C3048       C  0.17878650  0.66574591  0.30013336    -0.00500
C3049       C  0.16839739  0.66353310  0.30683687    -0.04100
C3050       C  0.15891819  0.65715596  0.30163206     0.02900
C3051       C  0.17042508  0.65284794  0.26996903     0.09700
C3052       C  0.19009543  0.66454695  0.28129047     0.35600
C3053       C  0.14815045  0.65499820  0.30837172     0.39000
C3054       C  0.16747970  0.66148768  0.26138875    -0.04500
C3055       C  0.16861125  0.65890641  0.24917655     0.02600
C3056       C  0.17261810  0.64759799  0.24544061    -0.04100
C3057       C  0.17527391  0.63885190  0.25405636    -0.00300
C3058       C  0.17426641  0.64150861  0.26628047    -0.02900
C3059       C  0.16342918  0.67311923  0.26518004     0.36400
C3060       C  0.17868077  0.62699296  0.25035555     0.40000
C3061       C  0.16604714  0.66806893  0.24049149     0.39100
C3062       C  0.17729499  0.63263187  0.27510090     0.36000
C3063       C  0.14992121  0.64692664  0.28429286     0.36700
C3064       C  0.18881307  0.67176261  0.30555952     0.40000
N3065       N  0.16400361  0.67539100  0.23357591    -0.38100
N3066       N  0.16020998  0.68238959  0.26823744    -0.39700
N3067       N  0.18132468  0.61750815  0.24740346    -0.37400
N3068       N  0.17972102  0.62557017  0.28216069    -0.39800
N3069       N  0.19851668  0.66658327  0.27575252    -0.39600
N3070       N  0.19680169  0.67654570  0.30992027    -0.37200
N3071       N  0.13953071  0.65331586  0.31372281    -0.38300
N3072       N  0.14214508  0.64178252  0.27995897    -0.39900
C3073       C  0.10759250  0.36282438  0.84972917    -0.04900
C3074       C  0.10689636  0.35511102  0.85956900     0.09300
C3075       C  0.11636801  0.34731171  0.86206029    -0.02300
C3076       C  0.12660831  0.34735944  0.85483712    -0.00500
C3077       C  0.12751201  0.35539352  0.84522361    -0.04100
C3078       C  0.11792168  0.36308933  0.84266316     0.02900
C3079       C  0.09625764  0.35551524  0.86748631     0.09700
C3080       C  0.11553962  0.33923663  0.87205986     0.35600
C3081       C  0.11880439  0.37159681  0.83302584     0.39000
C3082       C  0.08689088  0.34736039  0.86590395    -0.04500
C3083       C  0.07653926  0.34824881  0.87290684     0.02600
C3084       C  0.07546108  0.35738769  0.88147626    -0.04100
C3085       C  0.08495661  0.36545701  0.88313824    -0.00300
C3086       C  0.09534936  0.36444902  0.87621995    -0.02900
C3087       C  0.08788198  0.33813927  0.85695642     0.36400
C3088       C  0.08385365  0.37517905  0.89152634     0.40000
C3089       C  0.06709235  0.33961084  0.87140341     0.39100
C3090       C  0.10509865  0.37271032  0.87793850     0.36000
C3091       C  0.09761788  0.37047703  0.84689278     0.36700
C3092       C  0.13601748  0.33884351  0.85705727     0.40000
N3093       N  0.05955260  0.33272435  0.87019842    -0.38100
N3094       N  0.08869242  0.33078122  0.84982182    -0.39700
N3095       N  0.08299568  0.38297928  0.89816994    -0.37400
N3096       N  0.11290469  0.37926882  0.87926761    -0.39800
N3097       N  0.11486044  0.33278067  0.88002757    -0.39600
N3098       N  0.14349995  0.33201020  0.85877892    -0.37200
N3099       N  0.11949374  0.37841966  0.82536968    -0.38300
N3100       N  0.08961545  0.37651908  0.84463738    -0.39900
C3101       C  0.38922450  0.40442823  0.87650356    -0.04900
C3102       C  0.38933822  0.41261438  0.86699990     0.09300
C3103       C  0.38222304  0.41045477  0.85689904    -0.02300
C3104       C  0.37493630  0.40025518  0.85636413    -0.00500
C3105       C  0.37482438  0.39205471  0.86587725    -0.04100
C3106       C  0.38202929  0.39417600  0.87593455     0.02900
C3107       C  0.39674051  0.42367345  0.86780075     0.09700
C3108       C  0.38240348  0.41876728  0.84706025     0.35600
C3109       C  0.38171744  0.38603103  0.88591245     0.39000
C3110       C  0.40752872  0.42460190  0.86146695    -0.04500
C3111       C  0.41450739  0.43500938  0.86232226     0.02600
C3112       C  0.41091458  0.44445959  0.86980556    -0.04100
C3113       C  0.40013750  0.44341574  0.87624014    -0.00300
C3114       C  0.39297359  0.43320563  0.87500748    -0.02900
C3115       C  0.41135019  0.41486719  0.85393843     0.36400
C3116       C  0.39652741  0.45266770  0.88445908     0.40000
C3117       C  0.42509556  0.43615622  0.85507022     0.39100
C3118       C  0.38156688  0.43257896  0.88099114     0.36000
C3119       C  0.39647480  0.40662061  0.88692695     0.36700
C3120       C  0.36772180  0.39810248  0.84590597     0.40000
N3121       N  0.43349790  0.43706337  0.84920993    -0.38100
N3122       N  0.41432665  0.40709851  0.84789798    -0.39700
N3123       N  0.39364424  0.46001795  0.89104619    -0.37400
N3124       N  0.37243005  0.43210386  0.88568642    -0.39800
N3125       N  0.38263318  0.42537260  0.83918980    -0.39600
N3126       N  0.36196072  0.39640489  0.83756173    -0.37200
N3127       N  0.38143773  0.37953021  0.89386840    -0.38300
N3128       N  0.40221974  0.40840507  0.89526266    -0.39900
C3129       C  0.26458600  0.35103628  0.85962512    -0.04900
C3130       C  0.26156938  0.35642385  0.84872479     0.09300
C3131       C  0.27059969  0.36103813  0.84135829    -0.02300
C3132       C  0.28263430  0.35980639  0.84462305    -0.00500
C3133       C  0.28569842  0.35407281  0.85537311    -0.04100
C3134       C  0.27661355  0.34987554  0.86295378     0.02900
C3135       C  0.24895248  0.35645109  0.84455502     0.09700
C3136       C  0.26747961  0.36685600  0.83029269     0.35600
C3137       C  0.27963004  0.34454262  0.87428274     0.39000
C3138       C  0.24185727  0.36671685  0.84570688    -0.04500
C3139       C  0.23013458  0.36679218  0.84124498     0.02600
C3140       C  0.22546722  0.35658810  0.83561866    -0.04100
C3141       C  0.23252613  0.34625644  0.83465917    -0.00300
C3142       C  0.24422164  0.34619575  0.83911860    -0.02900
C3143       C  0.24668706  0.37721750  0.85138998     0.36400
C3144       C  0.22769800  0.33559517  0.82925851     0.40000
C3145       C  0.22303888  0.37751292  0.84203525     0.39100
C3146       C  0.25146978  0.33559298  0.83804919     0.36000
C3147       C  0.25527293  0.34662134  0.86735872     0.36700
C3148       C  0.29185558  0.36393718  0.83661776     0.40000
N3149       N  0.21737650  0.38607074  0.84262355    -0.38100
N3150       N  0.25055791  0.38559654  0.85591708    -0.39700
N3151       N  0.22385484  0.32708171  0.82496331    -0.37400
N3152       N  0.25727805  0.32715124  0.83725160    -0.39800
N3153       N  0.26496010  0.37154952  0.82150347    -0.39600
N3154       N  0.29920148  0.36719737  0.83020203    -0.37200
N3155       N  0.28204586  0.34032400  0.88333790    -0.38300
N3156       N  0.24781935  0.34310758  0.87350876    -0.39900
C3157       C  0.39156923  0.12852143  0.94081298    -0.04900
C3158       C  0.39848966  0.12522774  0.93090522     0.09300
C3159       C  0.40589782  0.11516252  0.93158189    -0.02300
C3160       C  0.40691884  0.10879365  0.94232604    -0.00500
C3161       C  0.40018110  0.11221463  0.95240865    -0.04100
C3162       C  0.39229947  0.12198419  0.95148057     0.02900
C3163       C  0.39844813  0.13274202  0.91993745     0.09700
C3164       C  0.41252980  0.11141858  0.92117917     0.35600
C3165       C  0.38470494  0.12521548  0.96138425     0.39000
C3166       C  0.40765307  0.14104634  0.91804897    -0.04500
C3167       C  0.40753829  0.14839090  0.90789882     0.02600
C3168       C  0.39832150  0.14731554  0.89944131    -0.04100
C3169       C  0.38918350  0.13889065  0.90128099    -0.00300
C3170       C  0.38921795  0.13167693  0.91153342    -0.02900
C3171       C  0.41728673  0.14195600  0.92656525     0.36400
C3172       C  0.37953893  0.13787941  0.89279919     0.40000
C3173       C  0.41707023  0.15686265  0.90604708     0.39100
C3174       C  0.37975002  0.12315786  0.91347884     0.36000
C3175       C  0.38373629  0.13872124  0.94002003     0.36700
C3176       C  0.41538038  0.09910692  0.94307194     0.40000
N3177       N  0.42468503  0.16362096  0.90461181    -0.38100
N3178       N  0.42498193  0.14257477  0.93335369    -0.39700
N3179       N  0.37184599  0.13708846  0.88602629    -0.37400
N3180       N  0.37218264  0.11638129  0.91506642    -0.39800
N3181       N  0.41776194  0.10841150  0.91285349    -0.39600
N3182       N  0.42216532  0.09140426  0.94362070    -0.37200
N3183       N  0.37862899  0.12782402  0.96926158    -0.38300
N3184       N  0.37746934  0.14683903  0.93935042    -0.39900
C3185       C  0.38895455  0.25657781  0.85382062    -0.04900
C3186       C  0.37790495  0.25893529  0.85927043     0.09300
C3187       C  0.37117323  0.24944877  0.86392376    -0.02300
C3188       C  0.37539032  0.23767199  0.86308621    -0.00500
C3189       C  0.38649198  0.23525460  0.85768006    -0.04100
C3190       C  0.39325146  0.24479300  0.85304184     0.02900
C3191       C  0.37325726  0.27140779  0.86017879     0.09700
C3192       C  0.35986079  0.25185652  0.86961413     0.35600
C3193       C  0.40481511  0.24255332  0.84781149     0.39000
C3194       C  0.36505595  0.27570052  0.85173441    -0.04500
C3195       C  0.35998808  0.28710919  0.85304822     0.02600
C3196       C  0.36324014  0.29444272  0.86274414    -0.04100
C3197       C  0.37164006  0.29018299  0.87107915    -0.00300
C3198       C  0.37655031  0.27869235  0.86983300    -0.02900
C3199       C  0.36184151  0.26832434  0.84166924     0.36400
C3200       C  0.37490612  0.29741325  0.88123106     0.40000
C3201       C  0.35159719  0.29135295  0.84424419     0.39100
C3202       C  0.38483199  0.27421869  0.87862482     0.36000
C3203       C  0.39591173  0.26631932  0.84906688     0.36700
C3204       C  0.36805981  0.22802246  0.86746743     0.40000
N3205       N  0.34486757  0.29470849  0.83723694    -0.38100
N3206       N  0.35931019  0.26243774  0.83362924    -0.39700
N3207       N  0.37752342  0.30316268  0.88934361    -0.37400
N3208       N  0.39142259  0.27059940  0.88563099    -0.39800
N3209       N  0.35084851  0.25381884  0.87415849    -0.39600
N3210       N  0.36219599  0.22033493  0.87096226    -0.37200
N3211       N  0.41406023  0.24078212  0.84366908    -0.38300
N3212       N  0.40146083  0.27410513  0.84528853    -0.39900
C3213       C  0.17243951  0.35040582  0.58001641    -0.04900
C3214       C  0.16355694  0.35919594  0.57922202     0.09300
C3215       C  0.15528467  0.36052950  0.58852960    -0.02300
C3216       C  0.15567623  0.35289025  0.59846530    -0.00500
C3217       C  0.16447020  0.34391776  0.59922075    -0.04100
C3218       C  0.17301686  0.34290931  0.59004012     0.02900
C3219       C  0.16283340  0.36691237  0.56841986     0.09700
C3220       C  0.14628480  0.36971545  0.58778997     0.35600
C3221       C  0.18273063  0.33450869  0.59108462     0.39000
C3222       C  0.15591598  0.36330984  0.55863003    -0.04500
C3223       C  0.15576601  0.37016845  0.54814478     0.02600
C3224       C  0.16257915  0.38072953  0.54735316    -0.04100
C3225       C  0.16924460  0.38448489  0.55734751    -0.00300
C3226       C  0.16935739  0.37758464  0.56782603    -0.02900
C3227       C  0.14899710  0.35245874  0.55936259     0.36400
C3228       C  0.17642054  0.39516603  0.55674826     0.40000
C3229       C  0.14837338  0.36641266  0.53827748     0.39100
C3230       C  0.17634053  0.38133563  0.57798522     0.36000
C3231       C  0.18095236  0.34905372  0.57042911     0.36700
C3232       C  0.14676845  0.35408726  0.60770442     0.40000
N3233       N  0.14248724  0.36337019  0.53041540    -0.38100
N3234       N  0.14347742  0.34380850  0.55998434    -0.39700
N3235       N  0.18215947  0.40368580  0.55632112    -0.37400
N3236       N  0.18189586  0.38428878  0.58611569    -0.39800
N3237       N  0.13911810  0.37705852  0.58720162    -0.39600
N3238       N  0.13967113  0.35508136  0.61508110    -0.37200
N3239       N  0.19053808  0.32787508  0.59192512    -0.38300
N3240       N  0.18769749  0.34798033  0.56274178    -0.39900
C3241       C  0.17604293  0.32755530  0.71606491    -0.04900
C3242       C  0.16670643  0.33455187  0.72057382     0.09300
C3243       C  0.15748847  0.33833283  0.71299933    -0.02300
C3244       C  0.15748242  0.33492355  0.70093754    -0.00500
C3245       C  0.16683700  0.32786735  0.69636859    -0.04100
C3246       C  0.17620986  0.32433836  0.70398811     0.02900
C3247       C  0.16671674  0.33792348  0.73337764     0.09700
C3248       C  0.14794315  0.34560526  0.71769357     0.35600
C3249       C  0.18624209  0.31765423  0.69941365     0.39000
C3250       C  0.17197784  0.34869964  0.73698188    -0.04500
C3251       C  0.17290301  0.35145442  0.74915013     0.02600
C3252       C  0.16855144  0.34342937  0.75775474    -0.04100
C3253       C  0.16322765  0.33265978  0.75412602    -0.00300
C3254       C  0.16228174  0.32993618  0.74194851    -0.02900
C3255       C  0.17663846  0.35682887  0.72813898     0.36400
C3256       C  0.15928658  0.32410150  0.76291915     0.40000
C3257       C  0.17826304  0.36258901  0.75280611     0.39100
C3258       C  0.15702053  0.31878288  0.73820342     0.36000
C3259       C  0.18546784  0.32362424  0.72393849     0.36700
C3260       C  0.14757527  0.33826615  0.69341224     0.40000
N3261       N  0.18255770  0.37145808  0.75573565    -0.38100
N3262       N  0.18035885  0.36328880  0.72106197    -0.39700
N3263       N  0.15621818  0.31724144  0.76993317    -0.37400
N3264       N  0.15285834  0.30987750  0.73519422    -0.39800
N3265       N  0.14034379  0.35142719  0.72144298    -0.39600
N3266       N  0.13964411  0.34091908  0.68743506    -0.37200
N3267       N  0.19426622  0.31231658  0.69582866    -0.38300
N3268       N  0.19291994  0.32046962  0.73027454    -0.39900
C3269       C  0.44085679  0.11842861  0.63709572    -0.04900
C3270       C  0.45023493  0.12663702  0.63844396     0.09300
C3271       C  0.44922696  0.13586126  0.64687598    -0.02300
C3272       C  0.43889418  0.13689085  0.65391342    -0.00500
C3273       C  0.42951980  0.12858818  0.65267996    -0.04100
C3274       C  0.43057933  0.11934147  0.64421967     0.02900
C3275       C  0.46134482  0.12535164  0.63121225     0.09700
C3276       C  0.45891828  0.14422864  0.64838974     0.35600
C3277       C  0.42133289  0.11042924  0.64313854     0.39000
C3278       C  0.46362747  0.13311637  0.62163290    -0.04500
C3279       C  0.47426531  0.13208540  0.61506170     0.02600
C3280       C  0.48262798  0.12315689  0.61793387    -0.04100
C3281       C  0.48013219  0.11515609  0.62728372    -0.00300
C3282       C  0.46961486  0.11634948  0.63398541    -0.02900
C3283       C  0.45503173  0.14221799  0.61859196     0.36400
C3284       C  0.48819432  0.10541987  0.62977671     0.40000
C3285       C  0.47674887  0.14049034  0.60561654     0.39100
C3286       C  0.46731512  0.10834922  0.64382193     0.36000
C3287       C  0.44188162  0.10892122  0.62845083     0.36700
C3288       C  0.43784108  0.14670466  0.66220269     0.40000
N3289       N  0.47872236  0.14720102  0.59808372    -0.38100
N3290       N  0.44818444  0.14949477  0.61618667    -0.39700
N3291       N  0.49458480  0.09760804  0.63171576    -0.37400
N3292       N  0.46543747  0.10196300  0.65165309    -0.39800
N3293       N  0.46665157  0.15090192  0.64956663    -0.39600
N3294       N  0.43703546  0.15454488  0.66880638    -0.37200
N3295       N  0.41398173  0.10329315  0.64226801    -0.38300
N3296       N  0.44276089  0.10130575  0.62160046    -0.39900
C3297       C  0.38760491  0.15589866  0.75773809    -0.04900
C3298       C  0.39210330  0.14695524  0.76527220     0.09300
C3299       C  0.39479625  0.13564861  0.76060470    -0.02300
C3300       C  0.39330944  0.13339189  0.74836636    -0.00500
C3301       C  0.38888125  0.14236779  0.74080272    -0.04100
C3302       C  0.38584450  0.15357035  0.74556377     0.02900
C3303       C  0.39437945  0.14969945  0.77805766     0.09700
C3304       C  0.39914572  0.12637949  0.76840649     0.35600
C3305       C  0.38127356  0.16284333  0.73787773     0.39000
C3306       C  0.38528189  0.14823341  0.78654791    -0.04500
C3307       C  0.38700310  0.15213858  0.79833487     0.02600
C3308       C  0.39793252  0.15732068  0.80172284    -0.04100
C3309       C  0.40720512  0.15829479  0.79332308    -0.00300
C3310       C  0.40540488  0.15455319  0.78150536    -0.02900
C3311       C  0.37406905  0.14293415  0.78305156     0.36400
C3312       C  0.41862712  0.16309896  0.79685366     0.40000
C3313       C  0.37729918  0.15142124  0.80678621     0.39100
C3314       C  0.41479311  0.15591684  0.77277852     0.36000
C3315       C  0.38506433  0.16759806  0.76250893     0.36700
C3316       C  0.39616202  0.12177516  0.74357776     0.40000
N3317       N  0.36953341  0.15092508  0.81350964    -0.38100
N3318       N  0.36514562  0.13866259  0.78025063    -0.39700
N3319       N  0.42776404  0.16688451  0.79966433    -0.37400
N3320       N  0.42223219  0.15699844  0.76576183    -0.39800
N3321       N  0.40258150  0.11896575  0.77463660    -0.39600
N3322       N  0.39843752  0.11252255  0.73971952    -0.37200
N3323       N  0.37760608  0.17024206  0.73176119    -0.38300
N3324       N  0.38312196  0.17693486  0.76634449    -0.39900
C3325       C  0.16383035  0.08410750  0.63978558    -0.04900
C3326       C  0.16526504  0.07652417  0.62990673     0.09300
C3327       C  0.17344911  0.07948399  0.62088901    -0.02300
C3328       C  0.18057220  0.08970556  0.62200756    -0.00500
C3329       C  0.17952945  0.09700353  0.63214939    -0.04100
C3330       C  0.17095143  0.09435355  0.64090508     0.02900
C3331       C  0.15879137  0.06496215  0.62937026     0.09700
C3332       C  0.17469637  0.07184940  0.61058302     0.35600
C3333       C  0.16977795  0.10191046  0.65127637     0.39000
C3334       C  0.14822498  0.06390038  0.62277259    -0.04500
C3335       C  0.14255088  0.05277345  0.62172014     0.02600
C3336       C  0.14726829  0.04264244  0.62756701    -0.04100
C3337       C  0.15772203  0.04389229  0.63447614    -0.00300
C3338       C  0.16352050  0.05496674  0.63521785    -0.02900
C3339       C  0.14324468  0.07429544  0.61701365     0.36400
C3340       C  0.16238123  0.03394085  0.64119394     0.40000
C3341       C  0.13211598  0.05178698  0.61422302     0.39100
C3342       C  0.17444669  0.05612397  0.64196930     0.36000
C3343       C  0.15520253  0.08118874  0.64889948     0.36700
C3344       C  0.18895920  0.09275220  0.61270293     0.40000
N3345       N  0.12377963  0.05107526  0.60824620    -0.38100
N3346       N  0.13925622  0.08259618  0.61245455    -0.39700
N3347       N  0.16615734  0.02605692  0.64659732    -0.37400
N3348       N  0.18316957  0.05711992  0.64731752    -0.39800
N3349       N  0.17566330  0.06575533  0.60235925    -0.39600
N3350       N  0.19563849  0.09522473  0.60528603    -0.37200
N3351       N  0.16885811  0.10793070  0.65956101    -0.38300
N3352       N  0.14831296  0.07883110  0.65615963    -0.39900
C3353       C  0.18522255  0.20820555  0.64141588    -0.04900
C3354       C  0.18872901  0.21671685  0.63292116     0.09300
C3355       C  0.19590649  0.21327346  0.62323395    -0.02300
C3356       C  0.19984845  0.20143492  0.62221107    -0.00500
C3357       C  0.19656198  0.19294678  0.63084254    -0.04100
C3358       C  0.18909770  0.19634145  0.64037336     0.02900
C3359       C  0.18540427  0.22947706  0.63444675     0.09700
C3360       C  0.19929249  0.22199368  0.61437155     0.35600
C3361       C  0.18579780  0.18776066  0.64940538     0.39000
C3362       C  0.19381444  0.23756453  0.63902648    -0.04500
C3363       C  0.19101080  0.24972774  0.63989681     0.02600
C3364       C  0.17971319  0.25385654  0.63630111    -0.04100
C3365       C  0.17118178  0.24570332  0.63203906    -0.00300
C3366       C  0.17404302  0.23354377  0.63106242    -0.02900
C3367       C  0.20536344  0.23331178  0.64286221     0.36400
C3368       C  0.15931952  0.24976354  0.62907611     0.40000
C3369       C  0.19987413  0.25801865  0.64424097     0.39100
C3370       C  0.16530505  0.22519194  0.62661043     0.36000
C3371       C  0.17785368  0.21173875  0.65138339     0.36700
C3372       C  0.20711873  0.19795716  0.61215379     0.40000
N3373       N  0.20697099  0.26460742  0.64769701    -0.38100
N3374       N  0.21455306  0.22986364  0.64591608    -0.39700
N3375       N  0.14984096  0.25302294  0.62679429    -0.37400
N3376       N  0.15831915  0.21851448  0.62310229    -0.39800
N3377       N  0.20197343  0.22900506  0.60735043    -0.39600
N3378       N  0.21289876  0.19520618  0.60410582    -0.37200
N3379       N  0.18317602  0.18090389  0.65660133    -0.38300
N3380       N  0.17196206  0.21454250  0.65933142    -0.39900
C3381       C  0.29170118  0.13415841  0.64033901    -0.04900
C3382       C  0.29487272  0.12901979  0.65129957     0.09300
C3383       C  0.28599542  0.12423760  0.65873365    -0.02300
C3384       C  0.27392106  0.12499228  0.65542637    -0.00500
C3385       C  0.27065591  0.13073059  0.64472041    -0.04100
C3386       C  0.27964345  0.13506558  0.63707017     0.02900
C3387       C  0.30748562  0.12954596  0.65542740     0.09700
C3388       C  0.28930238  0.11888489  0.66997688     0.35600
C3389       C  0.27652710  0.14034762  0.62574181     0.39000
C3390       C  0.31155160  0.13971496  0.66149943    -0.04500
C3391       C  0.32338708  0.14034479  0.66551523     0.02600
C3392       C  0.33134182  0.13086938  0.66328560    -0.04100
C3393       C  0.32733033  0.12082128  0.65687950    -0.00300
C3394       C  0.31537218  0.12008954  0.65314350    -0.02900
C3395       C  0.30349867  0.14956381  0.66358112     0.36400
C3396       C  0.33538967  0.11109114  0.65437020     0.40000
C3397       C  0.32741918  0.15092328  0.67168271     0.39100
C3398       C  0.31109716  0.10954482  0.64710618     0.36000
C3399       C  0.30089596  0.13871301  0.63253833     0.36700
C3400       C  0.26488157  0.12033351  0.66334361     0.40000
N3401       N  0.33060372  0.15935709  0.67662597    -0.38100
N3402       N  0.29705781  0.15741288  0.66517966    -0.39700
N3403       N  0.34182873  0.10335239  0.65228820    -0.37400
N3404       N  0.30765208  0.10110126  0.64236004    -0.39800
N3405       N  0.29196055  0.11464279  0.67895301    -0.39600
N3406       N  0.25769960  0.11656534  0.66966645    -0.37200
N3407       N  0.27406187  0.14456853  0.61670083    -0.38300
N3408       N  0.30827047  0.14231763  0.62634596    -0.39900
C3409       C  0.67110573  0.58474695  0.14730237    -0.04900
C3410       C  0.67409901  0.57647481  0.13838093     0.09300
C3411       C  0.68343204  0.57901006  0.13041899    -0.02300
C3412       C  0.68970091  0.58982769  0.13131217    -0.00500
C3413       C  0.68648389  0.59830455  0.14003387    -0.04100
C3414       C  0.67719066  0.59567408  0.14806961     0.02900
C3415       C  0.66714107  0.56521402  0.13719703     0.09700
C3416       C  0.68650267  0.57049404  0.12124670     0.35600
C3417       C  0.67412380  0.60402024  0.15739648     0.39000
C3418       C  0.65714660  0.56482790  0.12967787    -0.04500
C3419       C  0.65024512  0.55439678  0.12885146     0.02600
C3420       C  0.65326070  0.54422346  0.13562590    -0.04100
C3421       C  0.66340474  0.54464932  0.14310123    -0.00300
C3422       C  0.67032722  0.55508865  0.14381349    -0.02900
C3423       C  0.65400246  0.57523413  0.12276042     0.36400
C3424       C  0.66655089  0.53454407  0.15044229     0.40000
C3425       C  0.64025135  0.55412218  0.12072706     0.39100
C3426       C  0.68072207  0.55548696  0.15142561     0.36000
C3427       C  0.66179008  0.58192614  0.15575064     0.36700
C3428       C  0.69929510  0.59230652  0.12306270     0.40000
N3429       N  0.63227210  0.55397678  0.11424637    -0.38100
N3430       N  0.65155184  0.58355536  0.11725284    -0.39700
N3431       N  0.66912679  0.52651466  0.15631776    -0.37400
N3432       N  0.68902711  0.55583480  0.15747479    -0.39800
N3433       N  0.68892853  0.56371223  0.11390943    -0.39600
N3434       N  0.70698837  0.59424663  0.11651874    -0.37200
N3435       N  0.67166450  0.61066844  0.16484461    -0.38300
N3436       N  0.65439829  0.57960265  0.16251006    -0.39900
C3437       C  0.88730144  0.64597322  0.42312391    -0.04900
C3438       C  0.89688323  0.63800403  0.42450444     0.09300
C3439       C  0.90578746  0.63744776  0.41568447    -0.02300
C3440       C  0.90536251  0.64511338  0.40577398    -0.00500
C3441       C  0.89586959  0.65324367  0.40446595    -0.04100
C3442       C  0.88676019  0.65352043  0.41312485     0.02900
C3443       C  0.89797165  0.63067454  0.43557883     0.09700
C3444       C  0.91547102  0.62903381  0.41690407     0.35600
C3445       C  0.87668091  0.66141020  0.41165594     0.39000
C3446       C  0.89073115  0.62058186  0.43732136    -0.04500
C3447       C  0.89160558  0.61393428  0.44793174     0.02600
C3448       C  0.89983507  0.61727194  0.45683599    -0.04100
C3449       C  0.90740020  0.62710541  0.45483897    -0.00300
C3450       C  0.90630802  0.63389703  0.44437514    -0.02900
C3451       C  0.88228565  0.61712519  0.42822529     0.36400
C3452       C  0.91666993  0.62998600  0.46331943     0.40000
C3453       C  0.88377274  0.60387309  0.44978862     0.39100
C3454       C  0.91366730  0.64434903  0.44271024     0.36000
C3455       C  0.87804459  0.64647851  0.43207999     0.36700
C3456       C  0.91502517  0.64500016  0.39724262     0.40000
N3457       N  0.87753093  0.59583387  0.45124696    -0.38100
N3458       N  0.87551174  0.61440176  0.42098719    -0.39700
N3459       N  0.92413575  0.63223471  0.47002080    -0.37400
N3460       N  0.91950829  0.65269925  0.44135558    -0.39800
N3461       N  0.92318728  0.62231965  0.41791380    -0.39600
N3462       N  0.92277499  0.64493520  0.39048220    -0.37200
N3463       N  0.86863304  0.66769565  0.41048014    -0.38300
N3464       N  0.87063635  0.64682674  0.43920368    -0.39900
C3465       C  0.95120783  0.64357638  0.15392258    -0.04900
C3466       C  0.95239571  0.63417245  0.14573624     0.09300
C3467       C  0.94302670  0.62599881  0.14421869    -0.02300
C3468       C  0.93251809  0.62714557  0.15092370    -0.00500
C3469       C  0.93128504  0.63654668  0.15918453    -0.04100
C3470       C  0.94066656  0.64481287  0.16058409     0.02900
C3471       C  0.96355066  0.63277492  0.13868541     0.09700
C3472       C  0.94429713  0.61630182  0.13581454     0.35600
C3473       C  0.93939678  0.65479864  0.16863634     0.39000
C3474       C  0.97190812  0.62401534  0.14188292    -0.04500
C3475       C  0.98210056  0.62219603  0.13485355     0.02600
C3476       C  0.98411835  0.62929653  0.12468829    -0.04100
C3477       C  0.97580415  0.63818606  0.12159194    -0.00300
C3478       C  0.96552737  0.63988041  0.12855928    -0.02900
C3479       C  0.96996096  0.61683365  0.15240623     0.36400
C3480       C  0.97794180  0.64582273  0.11143918     0.40000
C3481       C  0.99026660  0.61268902  0.13785528     0.39100
C3482       C  0.95693562  0.64892117  0.12532614     0.36000
C3483       C  0.96089720  0.65192484  0.15553553     0.36700
C3484       C  0.92319688  0.61834541  0.14958466     0.40000
N3485       N  0.99675952  0.60508176  0.14022145    -0.38100
N3486       N  0.96839434  0.61110522  0.16079525    -0.39700
N3487       N  0.97961597  0.65194361  0.10335254    -0.37400
N3488       N  0.95007070  0.65614553  0.12281609    -0.39800
N3489       N  0.94538041  0.60855100  0.12914787    -0.39600
N3490       N  0.91578259  0.61130883  0.14847126    -0.37200
N3491       N  0.93840321  0.66277421  0.17504941    -0.38300
N3492       N  0.96862718  0.65858468  0.15680596    -0.39900
C3493       C  0.88294994  0.66146978  0.26338017    -0.04900
C3494       C  0.89090331  0.65572942  0.27115055     0.09300
C3495       C  0.89809722  0.64638962  0.26691970    -0.02300
C3496       C  0.89740058  0.64282933  0.25491892    -0.00500
C3497       C  0.88950670  0.64864347  0.24705585    -0.04100
C3498       C  0.88229231  0.65800979  0.25136386     0.02900
C3499       C  0.89204505  0.65987512  0.28371433     0.09700
C3500       C  0.90622182  0.64046664  0.27497309     0.35600
C3501       C  0.87453383  0.66447961  0.24336308     0.39000
C3502       C  0.88408830  0.65579272  0.29248392    -0.04500
C3503       C  0.88504177  0.65994708  0.30427822     0.02600
C3504       C  0.89406413  0.66815008  0.30738987    -0.04100
C3505       C  0.90213023  0.67207477  0.29857397    -0.00300
C3506       C  0.90104971  0.66801838  0.28677558    -0.02900
C3507       C  0.87487272  0.64735990  0.28930842     0.36400
C3508       C  0.91182010  0.67998760  0.30167234     0.40000
C3509       C  0.87645767  0.65605910  0.31307081     0.39100
C3510       C  0.90918475  0.67224621  0.27771078     0.36000
C3511       C  0.87555331  0.67107747  0.26775048     0.36700
C3512       C  0.90461312  0.63298583  0.25078374     0.40000
N3513       N  0.86959134  0.65293499  0.32006021    -0.38100
N3514       N  0.86752862  0.64063392  0.28675103    -0.39700
N3515       N  0.91958022  0.68627267  0.30412161    -0.37400
N3516       N  0.91564216  0.67559214  0.27044267    -0.39800
N3517       N  0.91269692  0.63578723  0.28143750    -0.39600
N3518       N  0.91038446  0.62512559  0.24752752    -0.37200
N3519       N  0.86834973  0.66965437  0.23699009    -0.38300
N3520       N  0.86963543  0.67872267  0.27124324    -0.39900
C3521       C  0.81759992  0.64403529  0.15817432    -0.04900
C3522       C  0.80918899  0.63583692  0.16254498     0.09300
C3523       C  0.81290669  0.62650659  0.17003078    -0.02300
C3524       C  0.82489862  0.62570703  0.17357556    -0.00500
C3525       C  0.83323684  0.63424361  0.16964392    -0.04100
C3526       C  0.82957643  0.64329600  0.16175619     0.02900
C3527       C  0.79628996  0.63753315  0.15985349     0.09700
C3528       C  0.80432893  0.61786467  0.17425265     0.35600
C3529       C  0.83794118  0.65229477  0.15787064     0.39000
C3530       C  0.79070876  0.63073972  0.15095194    -0.04500
C3531       C  0.77866049  0.63274024  0.14813822     0.02600
C3532       C  0.77190265  0.64114673  0.15466213    -0.04100
C3533       C  0.77753259  0.64780565  0.16373938    -0.00300
C3534       C  0.78972102  0.64616309  0.16613033    -0.02900
C3535       C  0.79739962  0.62167931  0.14468549     0.36400
C3536       C  0.77077811  0.65603788  0.17099758     0.40000
C3537       C  0.77343301  0.62646778  0.13816447     0.39100
C3538       C  0.79555962  0.65334511  0.17511055     0.36000
C3539       C  0.81381545  0.65342962  0.15021404     0.36700
C3540       C  0.82865733  0.61607369  0.18126195     0.40000
N3541       N  0.76931569  0.62149433  0.13016167    -0.38100
N3542       N  0.80270386  0.61436923  0.13977377    -0.39700
N3543       N  0.76545593  0.66260457  0.17685359    -0.37400
N3544       N  0.80028585  0.65911869  0.18218378    -0.39800
N3545       N  0.79749080  0.61094185  0.17757319    -0.39600
N3546       N  0.83165829  0.60839229  0.18739417    -0.37200
N3547       N  0.84459471  0.65950770  0.15480327    -0.38300
N3548       N  0.81074920  0.66092064  0.14388470    -0.39900
C3549       C  0.88358562  0.92283505  0.36513771    -0.04900
C3550       C  0.89400959  0.92290011  0.37206397     0.09300
C3551       C  0.89729102  0.91265717  0.37845297    -0.02300
C3552       C  0.89004650  0.90243850  0.37814215    -0.00500
C3553       C  0.87961690  0.90224935  0.37107447    -0.04100
C3554       C  0.87655808  0.91248732  0.36441119     0.02900
C3555       C  0.90156640  0.93380458  0.37265071     0.09700
C3556       C  0.90813195  0.91269813  0.38542957     0.35600
C3557       C  0.86642918  0.91233408  0.35644463     0.39000
C3558       C  0.90077153  0.94146740  0.38253844    -0.04500
C3559       C  0.90792686  0.95172622  0.38312071     0.02600
C3560       C  0.91587067  0.95440774  0.37378341    -0.04100
C3561       C  0.91665946  0.94673540  0.36388399    -0.00300
C3562       C  0.90950471  0.93646544  0.36331663    -0.02900
C3563       C  0.89244669  0.93885800  0.39202590     0.36400
C3564       C  0.92451155  0.94962316  0.35408186     0.40000
C3565       C  0.90725382  0.95943587  0.39342760     0.39100
C3566       C  0.91014767  0.92869853  0.35305186     0.36000
C3567       C  0.88003887  0.93351476  0.35886031     0.36700
C3568       C  0.89317376  0.89235002  0.38551447     0.40000
N3569       N  0.90674810  0.96558400  0.40165320    -0.38100
N3570       N  0.88578482  0.93676811  0.39957479    -0.39700
N3571       N  0.93074422  0.95193385  0.34623635    -0.37400
N3572       N  0.91056786  0.92251208  0.34485032    -0.39800
N3573       N  0.91678388  0.91275666  0.39098060    -0.39600
N3574       N  0.89572635  0.88433930  0.39142539    -0.37200
N3575       N  0.85838464  0.91226039  0.35004272    -0.38300
N3576       N  0.87720948  0.94206684  0.35391593    -0.39900
C3577       C  0.88071353  0.78958975  0.36230749    -0.04900
C3578       C  0.87618915  0.78079657  0.36999765     0.09300
C3579       C  0.86754130  0.78384711  0.37852768    -0.02300
C3580       C  0.86343045  0.79564344  0.37940611    -0.00500
C3581       C  0.86776688  0.80446892  0.37155817    -0.04100
C3582       C  0.87646705  0.80136504  0.36300758     0.02900
C3583       C  0.88010626  0.76815351  0.36878615     0.09700
C3584       C  0.86270226  0.77473341  0.38624970     0.35600
C3585       C  0.88065480  0.81009908  0.35450810     0.39000
C3586       C  0.88875601  0.76342118  0.37651106    -0.04500
C3587       C  0.89211022  0.75136496  0.37560137     0.02600
C3588       C  0.88686588  0.74396828  0.36688103    -0.04100
C3589       C  0.87809862  0.74876220  0.35922539    -0.00300
C3590       C  0.87477304  0.76079583  0.36017670    -0.02900
C3591       C  0.89417210  0.77100743  0.38540996     0.36400
C3592       C  0.87204615  0.74123369  0.35069059     0.40000
C3593       C  0.90112070  0.74667952  0.38352142     0.39100
C3594       C  0.86565266  0.76560151  0.35243989     0.36000
C3595       C  0.88958748  0.78643401  0.35350724     0.36700
C3596       C  0.85488774  0.79868135  0.38857105     0.40000
N3597       N  0.90828573  0.74297312  0.38989109    -0.38100
N3598       N  0.89844817  0.77709301  0.39250848    -0.39700
N3599       N  0.86719224  0.73525153  0.34388063    -0.37400
N3600       N  0.85837568  0.76946028  0.34629358    -0.39800
N3601       N  0.85884294  0.76742167  0.39235674    -0.39600
N3602       N  0.84806666  0.80106750  0.39588857    -0.37200
N3603       N  0.88397795  0.81705264  0.34770395    -0.38300
N3604       N  0.89665002  0.78391946  0.34646858    -0.39900
C3605       C  0.61991889  0.86258403  0.37137429    -0.04900
C3606       C  0.61090642  0.87069505  0.36824699     0.09300
C3607       C  0.61244633  0.87817182  0.35831788    -0.02300
C3608       C  0.62289464  0.87744832  0.35143177    -0.00500
C3609       C  0.63196650  0.86933872  0.35454622    -0.04100
C3610       C  0.63045838  0.86195595  0.36460295     0.02900
C3611       C  0.59969177  0.87136383  0.37535176     0.09700
C3612       C  0.60324746  0.88665460  0.35524808     0.35600
C3613       C  0.63957120  0.85342277  0.36777801     0.39000
C3614       C  0.59887275  0.87920658  0.38507728    -0.04500
C3615       C  0.58810599  0.88030010  0.39140703     0.02600
C3616       C  0.57809392  0.87341413  0.38813888    -0.04100
C3617       C  0.57899383  0.86548185  0.37841515    -0.00300
C3618       C  0.58977664  0.86443807  0.37209577    -0.02900
C3619       C  0.60916802  0.88612861  0.38857039     0.36400
C3620       C  0.56896079  0.85811976  0.37506720     0.40000
C3621       C  0.58725143  0.88886085  0.40100463     0.39100
C3622       C  0.59077230  0.85609735  0.36232049     0.36000
C3623       C  0.61825139  0.85479476  0.38149584     0.36700
C3624       C  0.62440258  0.88527816  0.34131297     0.40000
N3625       N  0.58658071  0.89571554  0.40863956    -0.38100
N3626       N  0.61741164  0.89159547  0.39137524    -0.39700
N3627       N  0.56096354  0.85225550  0.37234877    -0.37400
N3628       N  0.59162297  0.84940590  0.35456117    -0.39800
N3629       N  0.59589059  0.89342274  0.35286304    -0.39600
N3630       N  0.62557256  0.89152761  0.33323676    -0.37200
N3631       N  0.64684783  0.84662031  0.37031046    -0.38300
N3632       N  0.61689122  0.84856169  0.38955409    -0.39900
C3633       C  0.75092349  0.87411051  0.34767262    -0.04900
C3634       C  0.75312423  0.86667280  0.35749945     0.09300
C3635       C  0.74368438  0.86034053  0.36275248    -0.02300
C3636       C  0.73210480  0.86122316  0.35801823    -0.00500
C3637       C  0.72996018  0.86828291  0.34782768    -0.04100
C3638       C  0.73943374  0.87481497  0.34275321     0.02900
C3639       C  0.76563038  0.86475592  0.36152947     0.09700
C3640       C  0.74599982  0.85255943  0.37275014     0.35600
C3641       C  0.73743072  0.88227805  0.33244378     0.39000
C3642       C  0.77041226  0.87142374  0.37099237    -0.04500
C3643       C  0.78255082  0.87029286  0.37398678     0.02600
C3644       C  0.78998079  0.86251797  0.36745683    -0.04100
C3645       C  0.78508973  0.85582818  0.35798795    -0.00300
C3646       C  0.77293662  0.85680204  0.35519973    -0.02900
C3647       C  0.76282975  0.87951882  0.37754686     0.36400
C3648       C  0.79264391  0.84845301  0.35058761     0.40000
C3649       C  0.78732572  0.87705803  0.38385756     0.39100
C3650       C  0.76792259  0.84973345  0.34564880     0.36000
C3651       C  0.76061890  0.88085056  0.34248623     0.36700
C3652       C  0.72257515  0.85431800  0.36327353     0.40000
N3653       N  0.79110711  0.88249047  0.39172631    -0.38100
N3654       N  0.75674498  0.88595349  0.38277045    -0.39700
N3655       N  0.79865315  0.84261800  0.34462299    -0.37400
N3656       N  0.76388320  0.84409433  0.33806104    -0.39800
N3657       N  0.74783446  0.84631242  0.38070092    -0.39600
N3658       N  0.71496689  0.84882309  0.36747685    -0.37200
N3659       N  0.73592053  0.88818649  0.32417074    -0.38300
N3660       N  0.76840235  0.88619412  0.33841366    -0.39900
C3661       C  0.65425466  0.86589255  0.07009747    -0.04900
C3662       C  0.66214070  0.87063024  0.07860213     0.09300
C3663       C  0.66775376  0.88161169  0.07646236    -0.02300
C3664       C  0.66567223  0.88774495  0.06573822    -0.00500
C3665       C  0.65775092  0.88302906  0.05718309    -0.04100
C3666       C  0.65203052  0.87207001  0.05943568     0.02900
C3667       C  0.66452513  0.86391956  0.08980262     0.09700
C3668       C  0.67565987  0.88658957  0.08533260     0.35600
C3669       C  0.64359198  0.86726637  0.05096012     0.39000
C3670       C  0.67338315  0.85507944  0.09003469    -0.04500
C3671       C  0.67494774  0.84801202  0.10025744     0.02600
C3672       C  0.66746146  0.84956564  0.11024919    -0.04100
C3673       C  0.65889029  0.85878746  0.11013340    -0.00300
C3674       C  0.65752032  0.86598732  0.09996846    -0.02900
C3675       C  0.68081499  0.85321187  0.07966838     0.36400
C3676       C  0.65108762  0.86061144  0.12022667     0.40000
C3677       C  0.68451012  0.83938320  0.10057765     0.39100
C3678       C  0.64875946  0.87543709  0.09984905     0.36000
C3679       C  0.64834643  0.85467481  0.07242030     0.36700
C3680       C  0.67208519  0.89865987  0.06332884     0.40000
N3681       N  0.69218265  0.83254741  0.10083817    -0.38100
N3682       N  0.68672054  0.85173760  0.07138021    -0.39700
N3683       N  0.64483977  0.86212679  0.12825401    -0.37400
N3684       N  0.64182567  0.88302305  0.09972767    -0.39800
N3685       N  0.68191776  0.89059735  0.09243644    -0.39600
N3686       N  0.67723310  0.90734153  0.06137423    -0.37200
N3687       N  0.63685038  0.86340309  0.04422632    -0.38300
N3688       N  0.64365142  0.84573239  0.07433212    -0.39900
C3689       C  0.68213455  0.84698472  0.22275160    -0.04900
C3690       C  0.67326194  0.84381554  0.23101315     0.09300
C3691       C  0.66347351  0.83692687  0.22732953    -0.02300
C3692       C  0.66269838  0.83293995  0.21549081    -0.00500
C3693       C  0.67170742  0.83586689  0.20724437    -0.04100
C3694       C  0.68137014  0.84302473  0.21088245     0.02900
C3695       C  0.67444896  0.84724882  0.24377224     0.09700
C3696       C  0.65424498  0.83388019  0.23579790     0.35600
C3697       C  0.69079517  0.84589414  0.20257118     0.39000
C3698       C  0.66922430  0.85781470  0.24800402    -0.04500
C3699       C  0.66989676  0.86072169  0.26017769     0.02600
C3700       C  0.67584811  0.85307585  0.26815942    -0.04100
C3701       C  0.68118851  0.84255696  0.26385801    -0.00300
C3702       C  0.68045351  0.83964679  0.25170531    -0.02900
C3703       C  0.66311397  0.86564067  0.23980381     0.36400
C3704       C  0.68707942  0.83448709  0.27199164     0.40000
C3705       C  0.66470597  0.87172012  0.26442877     0.39100
C3706       C  0.68569254  0.82870648  0.24735109     0.36000
C3707       C  0.69213195  0.85417290  0.22654957     0.36700
C3708       C  0.65251083  0.82597933  0.21176302     0.40000
N3709       N  0.66057863  0.88050342  0.26781910    -0.38100
N3710       N  0.65824266  0.87186669  0.23323851    -0.39700
N3711       N  0.69177012  0.82804508  0.27848049    -0.37400
N3712       N  0.68983582  0.81997404  0.24385276    -0.39800
N3713       N  0.64689638  0.83149004  0.24258121    -0.39600
N3714       N  0.64438183  0.82043009  0.20878934    -0.37200
N3715       N  0.69833083  0.84816470  0.19595148    -0.38300
N3716       N  0.70009837  0.85991458  0.22959665    -0.39900
C3717       C  0.68845353  0.74202239  0.14267571    -0.04900
C3718       C  0.68080392  0.73403700  0.14860195     0.09300
C3719       C  0.67067184  0.73841550  0.15453267    -0.02300
C3720       C  0.66818386  0.75070587  0.15452039    -0.00500
C3721       C  0.67598166  0.75875852  0.14882362    -0.04100
C3722       C  0.68611935  0.75434142  0.14286069     0.02900
C3723       C  0.68363429  0.72102609  0.14869892     0.09700
C3724       C  0.66289034  0.73026591  0.16077366     0.35600
C3725       C  0.69448552  0.76248000  0.13739912     0.39000
C3726       C  0.68973322  0.71599887  0.15841686    -0.04500
C3727       C  0.69370055  0.70412219  0.15789711     0.02600
C3728       C  0.69157889  0.69715924  0.14764805    -0.04100
C3729       C  0.68481083  0.70198767  0.13823215    -0.00300
C3730       C  0.68085330  0.71388605  0.13877506    -0.02900
C3731       C  0.69203453  0.72311614  0.16890984     0.36400
C3732       C  0.68236097  0.69492796  0.12774134     0.40000
C3733       C  0.69984994  0.69901764  0.16800340     0.39100
C3734       C  0.67405687  0.71889899  0.12905119     0.36000
C3735       C  0.69889499  0.73753254  0.13659213     0.36700
C3736       C  0.65742433  0.75503497  0.16014650     0.40000
N3737       N  0.70473682  0.69491876  0.17606241    -0.38100
N3738       N  0.69379883  0.72877136  0.17731296    -0.39700
N3739       N  0.68038038  0.68932418  0.11935139    -0.37400
N3740       N  0.66860658  0.72294749  0.12133622    -0.39800
N3741       N  0.65672363  0.72378024  0.16583305    -0.39600
N3742       N  0.64882098  0.75851265  0.16457736    -0.37200
N3743       N  0.70120716  0.76895362  0.13308228    -0.38300
N3744       N  0.70719775  0.73389871  0.13173512    -0.39900
C3745       C  0.15173551  0.63817340  0.58913604    -0.04900
C3746       C  0.15975327  0.62861828  0.58810077     0.09300
C3747       C  0.16772142  0.62611204  0.59742250    -0.02300
C3748       C  0.16814969  0.63356134  0.60748250    -0.00500
C3749       C  0.16054179  0.64353723  0.60825814    -0.04100
C3750       C  0.15211390  0.64561981  0.59918552     0.02900
C3751       C  0.16043817  0.62180990  0.57674907     0.09700
C3752       C  0.17561579  0.61597017  0.59652392     0.35600
C3753       C  0.14368284  0.65530534  0.60025741     0.39000
C3754       C  0.16843015  0.62549797  0.56784749    -0.04500
C3755       C  0.16891183  0.61943218  0.55691442     0.02600
C3756       C  0.16123482  0.60970192  0.55472616    -0.04100
C3757       C  0.15325082  0.60600277  0.56373374    -0.00300
C3758       C  0.15291658  0.61201897  0.57472919    -0.02900
C3759       C  0.17604330  0.63570119  0.56992195     0.36400
C3760       C  0.14495333  0.59639014  0.56155361     0.40000
C3761       C  0.17750373  0.62313854  0.54804401     0.39100
C3762       C  0.14467166  0.60831844  0.58391738     0.36000
C3763       C  0.14319186  0.64039467  0.57975142     0.36700
C3764       C  0.17680829  0.63123601  0.61673794     0.40000
N3765       N  0.18435512  0.62616101  0.54099552    -0.38100
N3766       N  0.18205922  0.64386518  0.57161186    -0.39700
N3767       N  0.13830077  0.58873986  0.55983967    -0.37400
N3768       N  0.13808841  0.60540201  0.59125790    -0.39800
N3769       N  0.18188138  0.60785374  0.59581164    -0.39600
N3770       N  0.18371649  0.62936224  0.62411617    -0.37200
N3771       N  0.13694154  0.66301723  0.60111777    -0.38300
N3772       N  0.13635988  0.64210339  0.57226548    -0.39900
C3773       C  0.44053605  0.86771340  0.64285241    -0.04900
C3774       C  0.45081678  0.86066543  0.64399422     0.09300
C3775       C  0.45106953  0.85131985  0.65231727    -0.02300
C3776       C  0.44095586  0.84882324  0.65928057    -0.00500
C3777       C  0.43065820  0.85597796  0.65828483    -0.04100
C3778       C  0.43056594  0.86553293  0.65011332     0.02900
C3779       C  0.46149029  0.86323587  0.63653871     0.09700
C3780       C  0.46184294  0.84440798  0.65382644     0.35600
C3781       C  0.42047653  0.87352508  0.64954309     0.39000
C3782       C  0.46931131  0.87246109  0.63979548    -0.04500
C3783       C  0.47941133  0.87488479  0.63281137     0.02600
C3784       C  0.48179643  0.86802420  0.62255836    -0.04100
C3785       C  0.47390995  0.85882278  0.61927246    -0.00300
C3786       C  0.46378339  0.85644045  0.62625934    -0.02900
C3787       C  0.46702357  0.87934480  0.65045194     0.36400
C3788       C  0.47646399  0.85145740  0.60900961     0.40000
C3789       C  0.48724561  0.88458328  0.63609468     0.39100
C3790       C  0.45579507  0.84686633  0.62300721     0.36000
C3791       C  0.44030142  0.87731015  0.63425844     0.36700
C3792       C  0.44109258  0.83867721  0.66721909     0.40000
N3793       N  0.49349441  0.89231765  0.63871140    -0.38100
N3794       N  0.46518692  0.88481470  0.65896213    -0.39700
N3795       N  0.47851338  0.84556239  0.60083760    -0.37400
N3796       N  0.44943745  0.83919710  0.62046581    -0.39800
N3797       N  0.47047836  0.83896877  0.65505389    -0.39600
N3798       N  0.44123072  0.83054848  0.67350695    -0.37200
N3799       N  0.41247184  0.87996009  0.64911803    -0.38300
N3800       N  0.44014749  0.88495566  0.62739373    -0.39900
C3801       C  0.16891244  0.90184266  0.62030483    -0.04900
C3802       C  0.17022593  0.91211538  0.62734098     0.09300
C3803       C  0.17846298  0.91216334  0.63676803    -0.02300
C3804       C  0.18529782  0.90196050  0.63924580    -0.00500
C3805       C  0.18433288  0.89173561  0.63196519    -0.04100
C3806       C  0.17604281  0.89174739  0.62247538     0.02900
C3807       C  0.16278428  0.92290171  0.62505205     0.09700
C3808       C  0.17987018  0.92278772  0.64393271     0.35600
C3809       C  0.17503522  0.88154603  0.61466770     0.39000
C3810       C  0.15223882  0.92471872  0.63156107    -0.04500
C3811       C  0.14569342  0.93532063  0.63017040     0.02600
C3812       C  0.14965089  0.94422210  0.62219848    -0.04100
C3813       C  0.16013855  0.94224743  0.61551837    -0.00300
C3814       C  0.16664323  0.93161648  0.61693006    -0.02900
C3815       C  0.14828268  0.91571974  0.63989484     0.36400
C3816       C  0.16420147  0.95106090  0.60704405     0.40000
C3817       C  0.13521445  0.93724244  0.63742284     0.39100
C3818       C  0.17741294  0.92966277  0.61012216     0.36000
C3819       C  0.16018009  0.90168245  0.61083346     0.36700
C3820       C  0.19288608  0.90187267  0.64965813     0.40000
N3821       N  0.12686707  0.93873033  0.64324309    -0.38100
N3822       N  0.14518460  0.90851899  0.64654304    -0.39700
N3823       N  0.16748375  0.95809705  0.60030624    -0.37400
N3824       N  0.18599654  0.92807743  0.60468540    -0.39800
N3825       N  0.18097453  0.93131056  0.64957382    -0.39600
N3826       N  0.19885407  0.90183359  0.65802858    -0.37200
N3827       N  0.17419934  0.87341690  0.60842671    -0.38300
N3828       N  0.15317894  0.90153122  0.60330820    -0.39900
C3829       C  0.31655944  0.84335191  0.66125476    -0.04900
C3830       C  0.30889040  0.85222172  0.66567336     0.09300
C3831       C  0.31328291  0.86090245  0.67355294    -0.02300
C3832       C  0.32529257  0.86069213  0.67707737    -0.00500
C3833       C  0.33299508  0.85174346  0.67275887    -0.04100
C3834       C  0.32857968  0.84308351  0.66480591     0.02900
C3835       C  0.29603485  0.85221032  0.66236491     0.09700
C3836       C  0.30536049  0.86998113  0.67812804     0.35600
C3837       C  0.33622066  0.83353451  0.66075053     0.39000
C3838       C  0.28771848  0.84640221  0.66970355    -0.04500
C3839       C  0.27556770  0.84641287  0.66668118     0.02600
C3840       C  0.27164012  0.85223242  0.65624787    -0.04100
C3841       C  0.27999163  0.85824861  0.64902781    -0.00300
C3842       C  0.29216534  0.85813762  0.65203920    -0.02900
C3843       C  0.29173131  0.84031068  0.68032788     0.36400
C3844       C  0.27617187  0.86421061  0.63827182     0.40000
C3845       C  0.26709401  0.84064179  0.67449867     0.39100
C3846       C  0.30079266  0.86390670  0.64440051     0.36000
C3847       C  0.31197567  0.83436182  0.65324423     0.36700
C3848       C  0.32972465  0.86980372  0.68504778     0.40000
N3849       N  0.26035833  0.83602683  0.68074941    -0.38100
N3850       N  0.29496759  0.83544636  0.68878264    -0.39700
N3851       N  0.27315029  0.86900742  0.62969917    -0.37400
N3852       N  0.30771712  0.86843032  0.63829264    -0.39800
N3853       N  0.29901119  0.87719156  0.68178518    -0.39600
N3854       N  0.33323992  0.87705756  0.69143076    -0.37200
N3855       N  0.34229735  0.82587797  0.65756587    -0.38300
N3856       N  0.30828885  0.82719689  0.64685941    -0.39900
C3857       C  0.18409771  0.77839895  0.63035925    -0.04900
C3858       C  0.18568808  0.77109037  0.64040631     0.09300
C3859       C  0.19205702  0.77542426  0.65029152    -0.02300
C3860       C  0.19689932  0.78697497  0.65011713    -0.00500
C3861       C  0.19537904  0.79432068  0.64003162    -0.04100
C3862       C  0.18896652  0.78995677  0.63013912     0.02900
C3863       C  0.18111458  0.75860275  0.64048198     0.09700
C3864       C  0.19365614  0.76792490  0.66065043     0.35600
C3865       C  0.18781327  0.79714119  0.61951030     0.39000
C3866       C  0.18772642  0.74951585  0.63494389    -0.04500
C3867       C  0.18415333  0.73755797  0.63603310     0.02600
C3868       C  0.17385391  0.73460162  0.64262124    -0.04100
C3869       C  0.16698899  0.74378382  0.64777798    -0.00300
C3870       C  0.17061491  0.75573883  0.64670068    -0.02900
C3871       C  0.19840605  0.75248288  0.62835932     0.36400
C3872       C  0.15609672  0.74097024  0.65407153     0.40000
C3873       C  0.19148197  0.72829034  0.63088792     0.39100
C3874       C  0.16361278  0.76512919  0.65206905     0.36000
C3875       C  0.17750368  0.77395950  0.62022151     0.36700
C3876       C  0.20324929  0.79133313  0.66045278     0.40000
N3877       N  0.19735518  0.72091282  0.62679148    -0.38100
N3878       N  0.20689460  0.75488152  0.62307471    -0.39700
N3879       N  0.14739902  0.73874291  0.65908724    -0.37400
N3880       N  0.15804262  0.77263863  0.65634366    -0.39800
N3881       N  0.19487402  0.76192945  0.66890805    -0.39600
N3882       N  0.20834198  0.79476414  0.66869946    -0.37200
N3883       N  0.18694063  0.80284942  0.61100782    -0.38300
N3884       N  0.17224544  0.77039801  0.61213721    -0.39900
C3885       C  0.40604384  0.85761733  0.91808939    -0.04900
C3886       C  0.39830141  0.85612606  0.92782879     0.09300
C3887       C  0.38912068  0.84761750  0.92726188    -0.02300
C3888       C  0.38768368  0.84059667  0.91699726    -0.00500
C3889       C  0.39547731  0.84200914  0.90724113    -0.04100
C3890       C  0.40470277  0.85053092  0.90785464     0.02900
C3891       C  0.39984132  0.86351705  0.93874020     0.09700
C3892       C  0.38108560  0.84617825  0.93724077     0.35600
C3893       C  0.41309148  0.85177085  0.89814066     0.39000
C3894       C  0.39221292  0.87321859  0.94088262    -0.04500
C3895       C  0.39365909  0.88020045  0.95117356     0.02600
C3896       C  0.40272462  0.87746945  0.95943062    -0.04100
C3897       C  0.41030003  0.86767172  0.95730167    -0.00300
C3898       C  0.40887304  0.86074733  0.94696719    -0.02900
C3899       C  0.38276897  0.87590649  0.93253621     0.36400
C3900       C  0.41974907  0.86483059  0.96559217     0.40000
C3901       C  0.38550785  0.88991925  0.95344686     0.39100
C3902       C  0.41666508  0.85071308  0.94479144     0.36000
C3903       C  0.41536667  0.86650748  0.91860854     0.36700
C3904       C  0.37793407  0.83218815  0.91637271     0.40000
N3905       N  0.37899487  0.89766531  0.95525017    -0.38100
N3906       N  0.37518500  0.87797009  0.92591300    -0.39700
N3907       N  0.42726959  0.86252435  0.97220957    -0.37400
N3908       N  0.42289051  0.84272814  0.94301806    -0.39800
N3909       N  0.37464567  0.84510340  0.94518462    -0.39600
N3910       N  0.37015347  0.82548370  0.91588497    -0.37200
N3911       N  0.41980144  0.85276156  0.89040981    -0.38300
N3912       N  0.42279766  0.87360033  0.91903837    -0.39900
C3913       C  0.39921601  0.83642275  0.76518023    -0.04900
C3914       C  0.39369675  0.84455524  0.77294349     0.09300
C3915       C  0.38827730  0.85487661  0.76842541    -0.02300
C3916       C  0.38804438  0.85689370  0.75608441    -0.00500
C3917       C  0.39324830  0.84857117  0.74824834    -0.04100
C3918       C  0.39902453  0.83842649  0.75284749     0.02900
C3919       C  0.39293749  0.84174422  0.78582584     0.09700
C3920       C  0.38271446  0.86324605  0.77649159     0.35600
C3921       C  0.40420952  0.82969929  0.74490016     0.39000
C3922       C  0.40210797  0.84522916  0.79360292    -0.04500
C3923       C  0.40192950  0.84146584  0.80553635     0.02600
C3924       C  0.39263369  0.83409959  0.80962656    -0.04100
C3925       C  0.38324435  0.83097818  0.80191029    -0.00300
C3926       C  0.38335121  0.83489272  0.79005622    -0.02900
C3927       C  0.41185244  0.85241903  0.78920270     0.36400
C3928       C  0.37348219  0.82369526  0.80614782     0.40000
C3929       C  0.41160583  0.84466751  0.81341805     0.39100
C3930       C  0.37370288  0.83172168  0.78211399     0.36000
C3931       C  0.40472138  0.82576891  0.76990118     0.36700
C3932       C  0.38250012  0.86756339  0.75146252     0.40000
N3933       N  0.41933694  0.84720891  0.81970060    -0.38100
N3934       N  0.41961596  0.85815067  0.78565426    -0.39700
N3935       N  0.36572359  0.81785010  0.80951947    -0.37400
N3936       N  0.36600176  0.82924724  0.77576898    -0.39800
N3937       N  0.37827309  0.86989445  0.78295542    -0.39600
N3938       N  0.37808307  0.87608112  0.74778287    -0.37200
N3939       N  0.40833941  0.82272548  0.73857288    -0.38300
N3940       N  0.40906718  0.81726344  0.77369069    -0.39900
C3941       C  0.40718406  0.56206957  0.87666458    -0.04900
C3942       C  0.39843282  0.56366690  0.86785596     0.09300
C3943       C  0.39604302  0.55444131  0.85972602    -0.02300
C3944       C  0.40243354  0.54367857  0.86032232    -0.00500
C3945       C  0.41117610  0.54197923  0.86921547    -0.04100
C3946       C  0.41346156  0.55125054  0.87742716     0.02900
C3947       C  0.39148656  0.57498675  0.86727203     0.09700
C3948       C  0.38690661  0.55604272  0.85077583     0.35600
C3949       C  0.42191653  0.54955841  0.88700395     0.39000
C3950       C  0.39432692  0.58369996  0.85872249    -0.04500
C3951       C  0.38737320  0.59408549  0.85776806     0.02600
C3952       C  0.37761437  0.59588500  0.86547237    -0.04100
C3953       C  0.37488719  0.58720590  0.87413408    -0.00300
C3954       C  0.38178973  0.57679038  0.87500690    -0.02900
C3955       C  0.40433147  0.58186633  0.85080564     0.36400
C3956       C  0.36505223  0.58903175  0.88226479     0.40000
C3957       C  0.38990352  0.60261319  0.84845064     0.39100
C3958       C  0.37884228  0.56781503  0.88377030     0.36000
C3959       C  0.40965533  0.57157194  0.88501380     0.36700
C3960       C  0.40017073  0.53452439  0.85153703     0.40000
N3961       N  0.39187289  0.60937332  0.84096238    -0.38100
N3962       N  0.41230757  0.58036498  0.84449081    -0.39700
N3963       N  0.35720056  0.59046963  0.88874879    -0.37400
N3964       N  0.37653442  0.56063582  0.89075420    -0.39800
N3965       N  0.37960870  0.55737371  0.84366105    -0.39600
N3966       N  0.39830782  0.52725641  0.84450589    -0.37200
N3967       N  0.42865135  0.54822458  0.89465543    -0.38300
N3968       N  0.41161815  0.57914273  0.89168638    -0.39900
C3969       C  0.36722464  0.71323764  0.85132386    -0.04900
C3970       C  0.37277809  0.71786610  0.86154952     0.09300
C3971       C  0.37470902  0.71046367  0.87147173    -0.02300
C3972       C  0.37087590  0.69852812  0.87127403    -0.00500
C3973       C  0.36518043  0.69389114  0.86107813    -0.04100
C3974       C  0.36351663  0.70127923  0.85104287     0.02900
C3975       C  0.37637199  0.73064888  0.86197205     0.09700
C3976       C  0.38054173  0.71521949  0.88193489     0.35600
C3977       C  0.35823405  0.69653189  0.84028722     0.39000
C3978       C  0.36910991  0.73899404  0.86786137    -0.04500
C3979       C  0.37250340  0.75103908  0.86838633     0.02600
C3980       C  0.38313754  0.75484461  0.86287204    -0.04100
C3981       C  0.39034053  0.74647184  0.85686848    -0.00300
C3982       C  0.38695643  0.73442038  0.85642438    -0.02900
C3983       C  0.35794846  0.73520285  0.87307935     0.36400
C3984       C  0.40137840  0.75018794  0.85133420     0.40000
C3985       C  0.36476492  0.75956223  0.87418298     0.39100
C3986       C  0.39429330  0.72588697  0.85014530     0.36000
C3987       C  0.36521740  0.72085954  0.84113074     0.36700
C3988       C  0.37236025  0.69120536  0.88176372     0.40000
N3989       N  0.35858465  0.76635018  0.87881432    -0.38100
N3990       N  0.34902110  0.73216634  0.87718004    -0.39700
N3991       N  0.41017634  0.75315253  0.84690985    -0.37400
N3992       N  0.40009721  0.71908696  0.84506859    -0.39800
N3993       N  0.38518532  0.71906811  0.89026103    -0.39600
N3994       N  0.37353230  0.68540456  0.89016658    -0.37200
N3995       N  0.35403969  0.69275103  0.83169532    -0.38300
N3996       N  0.36363455  0.72696007  0.83301341    -0.39900
C3997       C  0.11718917  0.61705432  0.86889120    -0.04900
C3998       C  0.10797947  0.62545596  0.86777097     0.09300
C3999       C  0.10902012  0.63475350  0.85945712    -0.02300
C4000       C  0.11935120  0.63581857  0.85245172    -0.00500
C4001       C  0.12857816  0.62730469  0.85341638    -0.04100
C4002       C  0.12733226  0.61780654  0.86156781     0.02900
C4003       C  0.09707408  0.62449858  0.87528791     0.09700
C4004       C  0.09937343  0.64319822  0.85809426     0.35600
C4005       C  0.13616778  0.60844459  0.86205480     0.39000
C4006       C  0.09564679  0.63195871  0.88525133    -0.04500
C4007       C  0.08509896  0.63150464  0.89199542     0.02600
C4008       C  0.07595847  0.62344513  0.88889037    -0.04100
C4009       C  0.07754660  0.61578290  0.87905559    -0.00300
C4010       C  0.08804202  0.61636718  0.87224443    -0.02900
C4011       C  0.10504764  0.64016058  0.88849754     0.36400
C4012       C  0.06853910  0.60704487  0.87611029     0.40000
C4013       C  0.08352309  0.63967373  0.90184185     0.39100
C4014       C  0.08954980  0.60864304  0.86203700     0.36000
C4015       C  0.11619720  0.60762860  0.87761695     0.36700
C4016       C  0.12053323  0.64590070  0.84451576     0.40000
N4017       N  0.08229286  0.64620821  0.90968570    -0.38100
N4018       N  0.11255952  0.64669460  0.89106410    -0.39700
N4019       N  0.06136642  0.60005800  0.87377365    -0.37400
N4020       N  0.09078094  0.60246914  0.85390837    -0.39800
N4021       N  0.09164285  0.64988738  0.85702614    -0.39600
N4022       N  0.12140094  0.65396900  0.83820691    -0.37200
N4023       N  0.14315847  0.60091696  0.86239945    -0.38300
N4024       N  0.11540164  0.60013865  0.88460847    -0.39900
C4025       C  0.24723075  0.62002580  0.83831578    -0.04900
C4026       C  0.25120943  0.62919836  0.84587429     0.09300
C4027       C  0.24286573  0.63692610  0.85117092    -0.02300
C4028       C  0.23066686  0.63584251  0.84845986    -0.00500
C4029       C  0.22680358  0.62724659  0.84015390    -0.04100
C4030       C  0.23511418  0.61918837  0.83528009     0.02900
C4031       C  0.26425550  0.63110980  0.84765363     0.09700
C4032       C  0.24689196  0.64621793  0.85914141     0.35600
C4033       C  0.23120911  0.61000824  0.82711693     0.39000
C4034       C  0.27116698  0.63595274  0.83835408    -0.04500
C4035       C  0.28350680  0.63750683  0.83981453     0.02600
C4036       C  0.28900138  0.63434748  0.85062913    -0.04100
C4037       C  0.28206371  0.62973527  0.86001596    -0.00300
C4038       C  0.26974074  0.62801546  0.85849254    -0.02900
C4039       C  0.26555560  0.63931468  0.82724880     0.36400
C4040       C  0.28754058  0.62713880  0.87138354     0.40000
C4041       C  0.29059879  0.64208144  0.83006788     0.39100
C4042       C  0.26269614  0.62300806  0.86804665     0.36000
C4043       C  0.25566978  0.61149966  0.83359980     0.36700
C4044       C  0.22220435  0.64395933  0.85379961     0.40000
N4045       N  0.29626377  0.64570909  0.82229102    -0.38100
N4046       N  0.26107091  0.64195095  0.81838429    -0.39700
N4047       N  0.29190956  0.62515773  0.88047397    -0.37400
N4048       N  0.25704971  0.61905140  0.87567352    -0.39800
N4049       N  0.25012207  0.65359221  0.86553595    -0.39600
N4050       N  0.21546039  0.65041166  0.85811271    -0.37200
N4051       N  0.22810463  0.60271525  0.82056844    -0.38300
N4052       N  0.26241734  0.60468705  0.82989208    -0.39900
C4053       C  0.16083568  0.65514398  0.74919197    -0.04900
C4054       C  0.16569797  0.64736492  0.74066003     0.09300
C4055       C  0.17092040  0.63658565  0.74426469    -0.02300
C4056       C  0.17168635  0.63378068  0.75643334    -0.00500
C4057       C  0.16717210  0.64174296  0.76503767    -0.04100
C4058       C  0.16153590  0.65233923  0.76136267     0.02900
C4059       C  0.16583598  0.65089692  0.72790660     0.09700
C4060       C  0.17560634  0.62846061  0.73542914     0.35600
C4061       C  0.15690522  0.66062506  0.77008384     0.39000
C4062       C  0.17489805  0.65843708  0.72368623    -0.04500
C4063       C  0.17465937  0.66251816  0.71187201     0.02600
C4064       C  0.16524569  0.65918879  0.70425291    -0.04100
C4065       C  0.15637861  0.65129807  0.70840586    -0.00300
C4066       C  0.15673812  0.64710307  0.72019648    -0.02900
C4067       C  0.18446731  0.66198920  0.73156150     0.36400
C4068       C  0.14661709  0.64783813  0.70073634     0.40000
C4069       C  0.18430944  0.66985631  0.70748869     0.39100
C4070       C  0.14770846  0.63896011  0.72446874     0.36000
C4071       C  0.15532671  0.66616093  0.74540379     0.36700
C4072       C  0.17695645  0.62260453  0.76007759     0.40000
N4073       N  0.19203729  0.67567006  0.70399416    -0.38100
N4074       N  0.19207960  0.66479665  0.73787495    -0.39700
N4075       N  0.13881488  0.64507057  0.69463872    -0.37400
N4076       N  0.14056174  0.63240345  0.72788119    -0.39800
N4077       N  0.17930360  0.62196825  0.72836616    -0.39600
N4078       N  0.18115506  0.61369134  0.76299824    -0.37200
N4079       N  0.15319757  0.66725712  0.77701216    -0.38300
N4080       N  0.15096515  0.67494457  0.74233425    -0.39900
C4081       C  0.62132860  0.14020294  0.63694157    -0.04900
C4082       C  0.61326209  0.13102711  0.63976781     0.09300
C4083       C  0.61581709  0.12320889  0.64921273    -0.02300
C4084       C  0.62636439  0.12456625  0.65582988    -0.00500
C4085       C  0.63433725  0.13391463  0.65319753    -0.04100
C4086       C  0.63186166  0.14162105  0.64359917     0.02900
C4087       C  0.60195595  0.12966767  0.63290044     0.09700
C4088       C  0.60743127  0.11390947  0.65226647     0.35600
C4089       C  0.63994083  0.15125762  0.64079144     0.39000
C4090       C  0.60093882  0.12079164  0.62410809    -0.04500
C4091       C  0.59020253  0.11936979  0.61779568     0.02600
C4092       C  0.58043196  0.12691913  0.62014945    -0.04100
C4093       C  0.58148864  0.13581082  0.62897378    -0.00300
C4094       C  0.59219364  0.13713087  0.63535070    -0.02900
C4095       C  0.61096711  0.11309713  0.62159661     0.36400
C4096       C  0.57170378  0.14387329  0.63127960     0.40000
C4097       C  0.58910801  0.10984867  0.60917665     0.39100
C4098       C  0.59319206  0.14617573  0.64447845     0.36000
C4099       C  0.61862459  0.14834859  0.62733681     0.36700
C4100       C  0.62916406  0.11610308  0.66513089     0.40000
N4101       N  0.58823281  0.10222851  0.60232904    -0.38100
N4102       N  0.61896791  0.10695157  0.61962121    -0.39700
N4103       N  0.56390416  0.15031111  0.63312689    -0.37400
N4104       N  0.59402125  0.15339656  0.65174944    -0.39800
N4105       N  0.60070179  0.10652725  0.65469793    -0.39600
N4106       N  0.63142166  0.10930691  0.67250160    -0.37200
N4107       N  0.64639147  0.15893628  0.63852524    -0.38300
N4108       N  0.61639860  0.15489184  0.61973180    -0.39900
C4109       C  0.67645264  0.41652477  0.87875361    -0.04900
C4110       C  0.66535712  0.41643093  0.87292330     0.09300
C4111       C  0.66154999  0.40606861  0.86699863    -0.02300
C4112       C  0.66890265  0.39591480  0.86670191    -0.00500
C4113       C  0.68006001  0.39599313  0.87251293    -0.04100
C4114       C  0.68369933  0.40630159  0.87870673     0.02900
C4115       C  0.65771584  0.42732065  0.87307647     0.09700
C4116       C  0.65010585  0.40592348  0.86108229     0.35600
C4117       C  0.69467755  0.40626862  0.88545225     0.39000
C4118       C  0.66013089  0.43678972  0.86523872    -0.04500
C4119       C  0.65343524  0.44736523  0.86587425     0.02600
C4120       C  0.64442000  0.44865646  0.87454804    -0.04100
C4121       C  0.64186145  0.43903993  0.88223759    -0.00300
C4122       C  0.64840494  0.42837606  0.88139981    -0.02900
C4123       C  0.66959763  0.43564538  0.85656466     0.36400
C4124       C  0.63288470  0.44025737  0.89140660     0.40000
C4125       C  0.65563331  0.45677910  0.85735758     0.39100
C4126       C  0.64569979  0.41851241  0.88923404     0.36000
C4127       C  0.68040923  0.42721332  0.88477298     0.36700
C4128       C  0.66512068  0.38554547  0.86004956     0.40000
N4129       N  0.65735783  0.46426309  0.85052637    -0.38100
N4130       N  0.67718832  0.43472473  0.84968860    -0.39700
N4131       N  0.62575429  0.44121770  0.89875539    -0.37400
N4132       N  0.64351440  0.41060118  0.89542035    -0.39800
N4133       N  0.64095850  0.40578095  0.85639333    -0.39600
N4134       N  0.66211275  0.37727001  0.85474077    -0.37200
N4135       N  0.70337705  0.40624497  0.89093022    -0.38300
N4136       N  0.68354790  0.43579657  0.88948073    -0.39900
C4137       C  0.65389198  0.12969757  0.91083621    -0.04900
C4138       C  0.66085683  0.13170115  0.92103909     0.09300
C4139       C  0.66922115  0.14101341  0.92114508    -0.02300
C4140       C  0.67059318  0.14836608  0.91110402    -0.00500
C4141       C  0.66336588  0.14664108  0.90093815    -0.04100
C4142       C  0.65501963  0.13721172  0.90086563     0.02900
C4143       C  0.65905266  0.12436036  0.93194868     0.09700
C4144       C  0.67629796  0.14311597  0.93171702     0.35600
C4145       C  0.64713037  0.13554617  0.89081762     0.39000
C4146       C  0.66667867  0.11473922  0.93443138    -0.04500
C4147       C  0.66546860  0.10837250  0.94515881     0.02600
C4148       C  0.65672041  0.11173050  0.95352724    -0.04100
C4149       C  0.64893781  0.12122564  0.95089442    -0.00300
C4150       C  0.65004830  0.12744769  0.94009512    -0.02900
C4151       C  0.67591648  0.11157281  0.92602244     0.36400
C4152       C  0.63969026  0.12454837  0.95924263     0.40000
C4153       C  0.67357121  0.09871106  0.94778988     0.39100
C4154       C  0.64200598  0.13714193  0.93738555     0.36000
C4155       C  0.64542790  0.11998007  0.91070968     0.36700
C4156       C  0.67964804  0.15753933  0.91123126     0.40000
N4157       N  0.68004102  0.09100510  0.94988531    -0.38100
N4158       N  0.68330486  0.10909082  0.91931462    -0.39700
N4159       N  0.63233988  0.12722428  0.96591868    -0.37400
N4160       N  0.63557051  0.14484296  0.93517534    -0.39800
N4161       N  0.68189442  0.14476815  0.94018066    -0.39600
N4162       N  0.68688131  0.16484587  0.91139677    -0.37200
N4163       N  0.64079076  0.13420683  0.88283540    -0.38300
N4164       N  0.63869416  0.11221183  0.91062958    -0.39900
C4165       C  0.69371186  0.27766503  0.88024327    -0.04900
C4166       C  0.68329583  0.27471779  0.87395000     0.09300
C4167       C  0.67656050  0.28376256  0.86852111    -0.02300
C4168       C  0.68063191  0.29562234  0.86868327    -0.00500
C4169       C  0.69140433  0.29854500  0.87450498    -0.04100
C4170       C  0.69769605  0.28954167  0.88062986     0.02900
C4171       C  0.68011123  0.26197223  0.87191248     0.09700
C4172       C  0.66563043  0.28073756  0.86239589     0.35600
C4173       C  0.70823633  0.29247941  0.88744042     0.39000
C4174       C  0.67183353  0.25614276  0.87926946    -0.04500
C4175       C  0.66855113  0.24425480  0.87689087     0.02600
C4176       C  0.67393690  0.23793027  0.86739463    -0.04100
C4177       C  0.68250681  0.24380447  0.86025179    -0.00300
C4178       C  0.68534572  0.25581246  0.86235882    -0.02900
C4179       C  0.66674101  0.26241333  0.88931072     0.36400
C4180       C  0.68885793  0.23747821  0.85099029     0.40000
C4181       C  0.65930380  0.23876440  0.88399114     0.39100
C4182       C  0.69370593  0.26191178  0.85465759     0.36000
C4183       C  0.70048513  0.26838241  0.88606189     0.36700
C4184       C  0.67405889  0.30460537  0.86220936     0.40000
N4185       N  0.65188815  0.23446154  0.88967126    -0.38100
N4186       N  0.66275089  0.26741515  0.89736056    -0.39700
N4187       N  0.69397861  0.23250758  0.84358536    -0.37400
N4188       N  0.70032767  0.26682635  0.84851749    -0.39800
N4189       N  0.65689940  0.27827521  0.85755829    -0.39600
N4190       N  0.66877906  0.31172032  0.85700181    -0.37200
N4191       N  0.71663233  0.29481916  0.89289457    -0.38300
N4192       N  0.70589268  0.26096192  0.89067589    -0.39900
C4193       C  0.67872739  0.16196181  0.78492341    -0.04900
C4194       C  0.66904301  0.15565629  0.78006390     0.09300
C4195       C  0.65907661  0.15310719  0.78722395    -0.02300
C4196       C  0.65869202  0.15704696  0.79913280    -0.00500
C4197       C  0.66830941  0.16353216  0.80396045    -0.04100
C4198       C  0.67835177  0.16593291  0.79680813     0.02900
C4199       C  0.66913184  0.15232323  0.76718149     0.09700
C4200       C  0.64915387  0.14657328  0.78224538     0.35600
C4201       C  0.68839256  0.17235321  0.80171273     0.39000
C4202       C  0.67345110  0.14115016  0.76350400    -0.04500
C4203       C  0.67435077  0.13845259  0.75128012     0.02600
C4204       C  0.67104330  0.14696334  0.74267044    -0.04100
C4205       C  0.66618079  0.15792865  0.74639271    -0.00300
C4206       C  0.66524549  0.16058866  0.75860795    -0.02900
C4207       C  0.67701435  0.13247331  0.77232074     0.36400
C4208       C  0.66242790  0.16663582  0.73767820     0.40000
C4209       C  0.67829707  0.12677216  0.74755102     0.39100
C4210       C  0.66040936  0.17190984  0.76241536     0.36000
C4211       C  0.68907355  0.16438669  0.77762687     0.36700
C4212       C  0.64815988  0.15489624  0.80624136     0.40000
N4213       N  0.68132475  0.11741753  0.74455320    -0.38100
N4214       N  0.67983112  0.12554319  0.77936598    -0.39700
N4215       N  0.65938667  0.17358915  0.73074963    -0.37400
N4216       N  0.65654436  0.18091468  0.76551849    -0.39800
N4217       N  0.64125548  0.14133935  0.77825461    -0.39600
N4218       N  0.63973211  0.15323817  0.81189659    -0.37200
N4219       N  0.69640277  0.17748553  0.80561364    -0.38300
N4220       N  0.69731819  0.16628277  0.77178098    -0.39900
C4221       C  0.94540827  0.35657907  0.85262058    -0.04900
C4222       C  0.94582435  0.36444686  0.86235692     0.09300
C4223       C  0.93621882  0.37220880  0.86447044    -0.02300
C4224       C  0.92625175  0.37215320  0.85684394    -0.00500
C4225       C  0.92575122  0.36420771  0.84710362    -0.04100
C4226       C  0.93543224  0.35641731  0.84503972     0.02900
C4227       C  0.95667491  0.36485476  0.87005170     0.09700
C4228       C  0.93667471  0.38032841  0.87446421     0.35600
C4229       C  0.93512476  0.34800848  0.83527428     0.39000
C4230       C  0.96546150  0.37354873  0.86798660    -0.04500
C4231       C  0.97610187  0.37346616  0.87459933     0.02600
C4232       C  0.97804533  0.36466239  0.88333649    -0.04100
C4233       C  0.96912593  0.35610475  0.88557610    -0.00300
C4234       C  0.95845842  0.35623224  0.87897408    -0.02900
C4235       C  0.96356024  0.38252831  0.85894913     0.36400
C4236       C  0.97112038  0.34684958  0.89431003     0.40000
C4237       C  0.98496149  0.38259522  0.87253689     0.39100
C4238       C  0.94933746  0.34742309  0.88125798     0.36000
C4239       C  0.95534521  0.34867673  0.85037228     0.36700
C4240       C  0.91676607  0.38066083  0.85874700     0.40000
N4241       N  0.99202008  0.38988847  0.87089616    -0.38100
N4242       N  0.96198054  0.38969831  0.85175979    -0.39700
N4243       N  0.97273361  0.33944274  0.90124959    -0.37400
N4244       N  0.94205200  0.34040092  0.88308033    -0.39800
N4245       N  0.93707329  0.38680935  0.88243555    -0.39600
N4246       N  0.90923385  0.38749512  0.86024465    -0.37200
N4247       N  0.93496189  0.34132825  0.82745812    -0.38300
N4248       N  0.96327533  0.34237743  0.84860943    -0.39900
C4249       C  0.81198089  0.36356478  0.84273475    -0.04900
C4250       C  0.80430723  0.35395047  0.84037870     0.09300
C4251       C  0.80866915  0.34387765  0.83434163    -0.02300
C4252       C  0.82068891  0.34335826  0.83077853    -0.00500
C4253       C  0.82836368  0.35310530  0.83289437    -0.04100
C4254       C  0.82387296  0.36328319  0.83875867     0.02900
C4255       C  0.79153104  0.35452361  0.84407231     0.09700
C4256       C  0.80072226  0.33406628  0.83175726     0.35600
C4257       C  0.83125083  0.37375770  0.84012957     0.39000
C4258       C  0.78301263  0.35970411  0.83647704    -0.04500
C4259       C  0.77091183  0.36000590  0.83981253     0.02600
C4260       C  0.76725535  0.35506370  0.85076961    -0.04100
C4261       C  0.77589029  0.35027157  0.85853886    -0.00300
C4262       C  0.78794876  0.34986711  0.85513212    -0.02900
C4263       C  0.78672004  0.36447073  0.82509422     0.36400
C4264       C  0.77243053  0.34612239  0.87023950     0.40000
C4265       C  0.76221590  0.36508422  0.83178801     0.39100
C4266       C  0.79668083  0.34450437  0.86293347     0.36000
C4267       C  0.80759548  0.37376565  0.84926695     0.36700
C4268       C  0.82517838  0.33264589  0.82519588     0.40000
N4269       N  0.75531647  0.36917718  0.82536296    -0.38100
N4270       N  0.78974116  0.36822536  0.81601329    -0.39700
N4271       N  0.76965786  0.34291346  0.87960494    -0.37400
N4272       N  0.80363791  0.34016341  0.86912769    -0.39800
N4273       N  0.79434468  0.32627749  0.82966861    -0.39600
N4274       N  0.82873440  0.32407565  0.82076733    -0.37200
N4275       N  0.83709640  0.38215799  0.84111445    -0.38300
N4276       N  0.80410810  0.38186044  0.85455714    -0.39900
C4277       C  0.88704842  0.38290755  0.56595268    -0.04900
C4278       C  0.89440202  0.37301931  0.56813023     0.09300
C4279       C  0.90269085  0.36939125  0.55946331    -0.02300
C4280       C  0.90365994  0.37562835  0.54864779    -0.00500
C4281       C  0.89615283  0.38544357  0.54631257    -0.04100
C4282       C  0.88780000  0.38901602  0.55503499     0.02900
C4283       C  0.89320445  0.36608872  0.57939311     0.09700
C4284       C  0.91020810  0.35916397  0.56170710     0.35600
C4285       C  0.87962719  0.39868660  0.55265505     0.39000
C4286       C  0.88406974  0.35759497  0.58054378    -0.04500
C4287       C  0.88346635  0.35035446  0.59073336     0.02600
C4288       C  0.89225546  0.35127569  0.59966752    -0.04100
C4289       C  0.90126402  0.35998110  0.59860706    -0.00300
C4290       C  0.90158801  0.36750543  0.58859518    -0.02900
C4291       C  0.87542511  0.35615805  0.57109416     0.36400
C4292       C  0.91058859  0.36081005  0.60746245     0.40000
C4293       C  0.87363253  0.34213336  0.59210773     0.39100
C4294       C  0.91063591  0.37663350  0.58765318     0.36000
C4295       C  0.87869883  0.38677112  0.57498263     0.36700
C4296       C  0.91267470  0.37211016  0.54013337     0.40000
N4297       N  0.86575512  0.33561921  0.59322239    -0.38100
N4298       N  0.86855601  0.35502431  0.56353123    -0.39700
N4299       N  0.91807335  0.36143827  0.61448262    -0.37400
N4300       N  0.91781542  0.38395539  0.58691325    -0.39800
N4301       N  0.91618110  0.35100856  0.56355724    -0.39600
N4302       N  0.91989129  0.36925889  0.53338394    -0.37200
N4303       N  0.87307380  0.40637695  0.55077006    -0.38300
N4304       N  0.87205883  0.38985721  0.58220295    -0.39900
C4305       C  0.88729143  0.33169116  0.74126600    -0.04900
C4306       C  0.89248063  0.34044018  0.73395795     0.09300
C4307       C  0.89696197  0.35096633  0.73902994    -0.02300
C4308       C  0.89581475  0.35298232  0.75133456    -0.00500
C4309       C  0.89062188  0.34421639  0.75870891    -0.04100
C4310       C  0.88667797  0.33341428  0.75363733     0.02900
C4311       C  0.89344814  0.33836350  0.72090953     0.09700
C4312       C  0.90276390  0.35970404  0.73154321     0.35600
C4313       C  0.88244057  0.32384197  0.76115847     0.39000
C4314       C  0.88533838  0.34376197  0.71303507    -0.04500
C4315       C  0.88561283  0.34092837  0.70083830     0.02600
C4316       C  0.89415401  0.33282243  0.69645504    -0.04100
C4317       C  0.90260143  0.32784738  0.70431493    -0.00300
C4318       C  0.90220678  0.33058444  0.71650427    -0.02900
C4319       C  0.87658596  0.35207874  0.71754512     0.36400
C4320       C  0.91183444  0.32002039  0.69987576     0.40000
C4321       C  0.87669682  0.34588132  0.69296515     0.39100
C4322       C  0.91077099  0.32534388  0.72458553     0.36000
C4323       C  0.88249806  0.32093871  0.73600120     0.36700
C4324       C  0.89957926  0.36427726  0.75625637     0.40000
N4325       N  0.86955123  0.34981281  0.68670913    -0.38100
N4326       N  0.86966795  0.35878187  0.72113751    -0.39700
N4327       N  0.91920140  0.31376876  0.69636110    -0.37400
N4328       N  0.91756269  0.32116734  0.73106943    -0.39800
N4329       N  0.90742389  0.36663295  0.72554815    -0.39600
N4330       N  0.90256617  0.37331322  0.76014527    -0.37200
N4331       N  0.87917218  0.31613989  0.76713101    -0.38300
N4332       N  0.87864381  0.31240044  0.73176536    -0.39900
C4333       C  0.89895339  0.09001352  0.62801708    -0.04900
C4334       C  0.89657094  0.08021816  0.63543845     0.09300
C4335       C  0.88736257  0.08093785  0.64389389    -0.02300
C4336       C  0.88062314  0.09144029  0.64502240    -0.00500
C4337       C  0.88269657  0.10119249  0.63733668    -0.04100
C4338       C  0.89203913  0.10044669  0.62890128     0.02900
C4339       C  0.90392962  0.06917440  0.63451009     0.09700
C4340       C  0.88475722  0.07077573  0.65137381     0.35600
C4341       C  0.89446410  0.11024164  0.62089669     0.39000
C4342       C  0.91347587  0.06730678  0.64241179    -0.04500
C4343       C  0.92025829  0.05677405  0.64175236     0.02600
C4344       C  0.91754505  0.04804058  0.63312893    -0.04100
C4345       C  0.90820603  0.05013694  0.62497348    -0.00300
C4346       C  0.90134365  0.06058936  0.62576402    -0.02900
C4347       C  0.91619959  0.07622295  0.65131021     0.36400
C4348       C  0.90589526  0.04173147  0.61547719     0.40000
C4349       C  0.92977356  0.05481088  0.65020586     0.39100
C4350       C  0.89151084  0.06247186  0.61765477     0.36000
C4351       C  0.90850281  0.08926878  0.61938458     0.36700
C4352       C  0.87193868  0.09234762  0.65450820     0.40000
N4353       N  0.93736443  0.05330476  0.65697161    -0.38100
N4354       N  0.91829664  0.08337352  0.65839352    -0.39700
N4355       N  0.90411549  0.03504493  0.60787171    -0.37400
N4356       N  0.88364941  0.06395128  0.61120030    -0.39800
N4357       N  0.88264213  0.06264506  0.65729340    -0.39600
N4358       N  0.86507163  0.09308942  0.66212832    -0.37200
N4359       N  0.89652721  0.11803275  0.61451556    -0.38300
N4360       N  0.91611368  0.08861630  0.61249971    -0.39900
C4361       C  0.88044073  0.21490963  0.64076749    -0.04900
C4362       C  0.87609408  0.22263498  0.63193793     0.09300
C4363       C  0.86864866  0.21825560  0.62288751    -0.02300
C4364       C  0.86522006  0.20622420  0.62287230    -0.00500
C4365       C  0.86923769  0.19850590  0.63193713    -0.04100
C4366       C  0.87707858  0.20285235  0.64075543     0.02900
C4367       C  0.87873947  0.23557962  0.63263125     0.09700
C4368       C  0.86432183  0.22623836  0.61374699     0.35600
C4369       C  0.88125035  0.19512584  0.65017823     0.39000
C4370       C  0.88895410  0.24027336  0.62710653    -0.04500
C4371       C  0.89138754  0.25252976  0.62784344     0.02600
C4372       C  0.88385663  0.26001914  0.63452040    -0.04100
C4373       C  0.87367218  0.25526737  0.64012573    -0.00300
C4374       C  0.87102348  0.24310767  0.63900467    -0.02900
C4375       C  0.89708307  0.23242235  0.62092565     0.36400
C4376       C  0.86582634  0.26289255  0.64695077     0.40000
C4377       C  0.90183924  0.25736316  0.62205460     0.39100
C4378       C  0.86037347  0.23828214  0.64444473     0.36000
C4379       C  0.88806195  0.21951510  0.65009100     0.36700
C4380       C  0.85764810  0.20178676  0.61343416     0.40000
N4381       N  0.91014764  0.26125119  0.61740729    -0.38100
N4382       N  0.90362068  0.22613455  0.61608643    -0.39700
N4383       N  0.85959702  0.26894726  0.65245258    -0.37400
N4384       N  0.85186437  0.23440809  0.64872539    -0.39800
N4385       N  0.86087724  0.23264012  0.60648399    -0.39600
N4386       N  0.85160488  0.19826686  0.60589809    -0.37200
N4387       N  0.88462383  0.18900114  0.65771000    -0.38300
N4388       N  0.89410370  0.22324633  0.65752568    -0.39900
C4389       C  0.77692188  0.13530374  0.66122208    -0.04900
C4390       C  0.76837130  0.14028343  0.65352988     0.09300
C4391       C  0.77202522  0.14521455  0.64260594    -0.02300
C4392       C  0.78418169  0.14531928  0.63946593    -0.00500
C4393       C  0.79282700  0.14069980  0.64734423    -0.04100
C4394       C  0.78909948  0.13556928  0.65820026     0.02900
C4395       C  0.75553399  0.14046182  0.65713163     0.09700
C4396       C  0.76326018  0.15027399  0.63464419     0.35600
C4397       C  0.79778317  0.13095300  0.66651686     0.39000
C4398       C  0.75135890  0.14928350  0.66499542    -0.04500
C4399       C  0.73957921  0.14887851  0.66929088     0.02600
C4400       C  0.73181283  0.13967432  0.66568164    -0.04100
C4401       C  0.73586974  0.13113527  0.65737923    -0.00300
C4402       C  0.74770325  0.13151053  0.65317425    -0.02900
C4403       C  0.75923539  0.15880218  0.66865624     0.36400
C4404       C  0.72803613  0.12168684  0.65346250     0.40000
C4405       C  0.73538077  0.15814306  0.67720465     0.39100
C4406       C  0.75193329  0.12256317  0.64492292     0.36000
C4407       C  0.77313342  0.12997980  0.67233073     0.36700
C4408       C  0.78774116  0.14985486  0.62794026     0.40000
N4409       N  0.73201466  0.16553355  0.68351050    -0.38100
N4410       N  0.76551861  0.16640967  0.67154386    -0.39700
N4411       N  0.72180739  0.11414383  0.65029609    -0.37400
N4412       N  0.75534730  0.11545822  0.63832182    -0.39800
N4413       N  0.75627464  0.15432113  0.62828469    -0.39600
N4414       N  0.79059451  0.15340504  0.61872286    -0.37200
N4415       N  0.80467289  0.12726103  0.67319101    -0.38300
N4416       N  0.77004348  0.12573855  0.68117032    -0.39900
C4417       C  0.90194631  0.63732670  0.59689043    -0.04900
C4418       C  0.89379452  0.63814046  0.58741424     0.09300
C4419       C  0.88397086  0.64586940  0.58831190    -0.02300
C4420       C  0.88233070  0.65280486  0.59863093    -0.00500
C4421       C  0.89059265  0.65213430  0.60806866    -0.04100
C4422       C  0.90043602  0.64439016  0.60712739     0.02900
C4423       C  0.89593480  0.63131359  0.57620961     0.09700
C4424       C  0.87565793  0.64679000  0.57851220     0.35600
C4425       C  0.90938409  0.64415300  0.61639613     0.39000
C4426       C  0.89022673  0.62033425  0.57426484    -0.04500
C4427       C  0.89239515  0.61388555  0.56372348     0.02600
C4428       C  0.90009495  0.61853236  0.55492641    -0.04100
C4429       C  0.90577297  0.62956637  0.55691425    -0.00300
C4430       C  0.90378316  0.63585764  0.56756486    -0.02900
C4431       C  0.88205768  0.61573253  0.58310623     0.36400
C4432       C  0.91393950  0.63433638  0.54815815     0.40000
C4433       C  0.88643385  0.60261931  0.56183370     0.39100
C4434       C  0.90987116  0.64701388  0.56971242     0.36000
C4435       C  0.91201104  0.62933415  0.59598775     0.36700
C4436       C  0.87204927  0.66051304  0.59957973     0.40000
N4437       N  0.88171434  0.59360513  0.56035897    -0.38100
N4438       N  0.87549762  0.61209451  0.59013898    -0.39700
N4439       N  0.92044386  0.63817545  0.54118063    -0.37400
N4440       N  0.91475195  0.65588045  0.57151170    -0.39800
N4441       N  0.86905299  0.64751459  0.57066937    -0.39600
N4442       N  0.86383891  0.66665472  0.60032550    -0.37200
N4443       N  0.91656535  0.64404300  0.62375066    -0.38300
N4444       N  0.92003288  0.62295064  0.59524427    -0.39900
C4445       C  0.89246192  0.90995986  0.62188253    -0.04900
C4446       C  0.89058523  0.91964102  0.62960570     0.09300
C4447       C  0.88142146  0.91908915  0.63813715    -0.02300
C4448       C  0.87419878  0.90887743  0.63900742    -0.00500
C4449       C  0.87604887  0.89912539  0.63127522    -0.04100
C4450       C  0.88530497  0.89970218  0.62276013     0.02900
C4451       C  0.89844966  0.93035465  0.62892901     0.09700
C4452       C  0.87946895  0.92906358  0.64606046     0.35600
C4453       C  0.88742940  0.88982664  0.61475398     0.39000
C4454       C  0.89628912  0.93924414  0.62037562    -0.04500
C4455       C  0.90369922  0.94934592  0.61977126     0.02600
C4456       C  0.91315222  0.95077556  0.62793056    -0.04100
C4457       C  0.91533933  0.94180321  0.63644419    -0.00300
C4458       C  0.90807158  0.93159286  0.63686437    -0.02900
C4459       C  0.88637105  0.93799042  0.61224595     0.36400
C4460       C  0.92481735  0.94322488  0.64505322     0.40000
C4461       C  0.90185143  0.95804313  0.61045419     0.39100
C4462       C  0.91044206  0.92233352  0.64550024     0.36000
C4463       C  0.90176667  0.91060484  0.61298441     0.36700
C4464       C  0.86524353  0.90824362  0.64826050     0.40000
N4465       N  0.90042639  0.96491751  0.60294898    -0.38100
N4466       N  0.87843465  0.93695748  0.60579378    -0.39700
N4467       N  0.93236363  0.94435507  0.65194249    -0.37400
N4468       N  0.91230800  0.91492034  0.65236751    -0.39800
N4469       N  0.87792526  0.93702428  0.65237963    -0.39600
N4470       N  0.85812495  0.90773830  0.65566645    -0.37200
N4471       N  0.88921226  0.88192815  0.60841648    -0.38300
N4472       N  0.90914623  0.91116473  0.60584512    -0.39900
C4473       C  0.88260322  0.78790369  0.65118700    -0.04900
C4474       C  0.87754098  0.77859175  0.64450570     0.09300
C4475       C  0.86884301  0.78112898  0.63585896    -0.02300
C4476       C  0.86476038  0.79283089  0.63431149    -0.00500
C4477       C  0.86920497  0.80206907  0.64155131    -0.04100
C4478       C  0.87842689  0.79964231  0.64973987     0.02900
C4479       C  0.88057590  0.76593719  0.64704970     0.09700
C4480       C  0.86387111  0.77158158  0.62876003     0.35600
C4481       C  0.88323665  0.80907904  0.65707611     0.39000
C4482       C  0.87267579  0.75902084  0.65388449    -0.04500
C4483       C  0.87435095  0.74666757  0.65483838     0.02600
C4484       C  0.88414017  0.74117334  0.64918091    -0.04100
C4485       C  0.89230604  0.74820032  0.64271041    -0.00300
C4486       C  0.89053292  0.76056558  0.64167992    -0.02900
C4487       C  0.86265261  0.76464848  0.65973651     0.36400
C4488       C  0.90257881  0.74274045  0.63717059     0.40000
C4489       C  0.86556905  0.73956882  0.66106163     0.39100
C4490       C  0.89887216  0.76777616  0.63501753     0.36000
C4491       C  0.89185536  0.78532754  0.65976734     0.36700
C4492       C  0.85609138  0.79537628  0.62512111     0.40000
N4493       N  0.85850716  0.73393360  0.66597175    -0.38100
N4494       N  0.85468856  0.76918154  0.66440021    -0.39700
N4495       N  0.91076174  0.73837850  0.63272692    -0.37400
N4496       N  0.90556206  0.77355897  0.62977262    -0.39800
N4497       N  0.85989614  0.76392436  0.62316990    -0.39600
N4498       N  0.84921877  0.79741190  0.61775458    -0.37200
N4499       N  0.88708842  0.81660578  0.66292741    -0.38300
N4500       N  0.89927895  0.78328066  0.66657591    -0.39900
C4501       C  0.66441405  0.58835066  0.88605488    -0.04900
C4502       C  0.66686761  0.57849910  0.87870603     0.09300
C4503       C  0.67615123  0.57917520  0.87032009    -0.02300
C4504       C  0.68267379  0.58978591  0.86896289    -0.00500
C4505       C  0.68019544  0.59972857  0.87625737    -0.04100
C4506       C  0.67107697  0.59891889  0.88487807     0.02900
C4507       C  0.65941479  0.56749933  0.87947110     0.09700
C4508       C  0.67903418  0.56886739  0.86314180     0.35600
C4509       C  0.66876162  0.60881712  0.89279694     0.39000
C4510       C  0.64992828  0.56582102  0.87146300    -0.04500
C4511       C  0.64317211  0.55526150  0.87176886     0.02600
C4512       C  0.64566206  0.54638125  0.88031588    -0.04100
C4513       C  0.65510849  0.54818165  0.88844332    -0.00300
C4514       C  0.66203275  0.55863570  0.88791196    -0.02900
C4515       C  0.64724808  0.57495188  0.86277697     0.36400
C4516       C  0.65758489  0.53942484  0.89755667     0.40000
C4517       C  0.63406988  0.55333144  0.86285760     0.39100
C4518       C  0.67199477  0.56023385  0.89592773     0.36000
C4519       C  0.65507663  0.58754403  0.89489814     0.36700
C4520       C  0.69161221  0.59057547  0.85970501     0.40000
N4521       N  0.62686487  0.55179559  0.85568670    -0.38100
N4522       N  0.64514966  0.58226273  0.85586737    -0.39700
N4523       N  0.65958231  0.53246854  0.90485336    -0.37400
N4524       N  0.67998410  0.56151959  0.90226856    -0.39800
N4525       N  0.68137313  0.56060705  0.85748697    -0.39600
N4526       N  0.69870634  0.59121151  0.85228635    -0.37200
N4527       N  0.66692840  0.61670678  0.89913030    -0.38300
N4528       N  0.64765734  0.58686727  0.90198613    -0.39900
C4529       C  0.95833928  0.62205092  0.88797134    -0.04900
C4530       C  0.95708664  0.62965302  0.87810413     0.09300
C4531       C  0.96639212  0.63747091  0.87507359    -0.02300
C4532       C  0.97700261  0.63756113  0.88174642    -0.00500
C4533       C  0.97843122  0.62973724  0.89149251    -0.04100
C4534       C  0.96896807  0.62205099  0.89463126     0.02900
C4535       C  0.94589814  0.62957365  0.87090912     0.09700
C4536       C  0.96498314  0.64546295  0.86506492     0.35600
C4537       C  0.97026193  0.61379345  0.90443350     0.39000
C4538       C  0.93656157  0.63740809  0.87377051    -0.04500
C4539       C  0.92631793  0.63793157  0.86655238     0.02600
C4540       C  0.92531140  0.63053285  0.85641638    -0.04100
C4541       C  0.93454835  0.62241051  0.85380998    -0.00300
C4542       C  0.94482881  0.62200336  0.86098262    -0.02900
C4543       C  0.93764716  0.64508644  0.88406706     0.36400
C4544       C  0.93335227  0.61420704  0.84394307     0.40000
C4545       C  0.91706810  0.64644955  0.86935078     0.39100
C4546       C  0.95439635  0.61387035  0.85809862     0.36000
C4547       C  0.94867895  0.61416955  0.89122149     0.36700
C4548       C  0.98629244  0.64597602  0.87873647     0.40000
N4549       N  0.90971898  0.65326521  0.87163770    -0.38100
N4550       N  0.93858527  0.65118104  0.89229401    -0.39700
N4551       N  0.93236777  0.60763578  0.83609632    -0.37400
N4552       N  0.96204224  0.60739799  0.85579027    -0.39800
N4553       N  0.96380189  0.65182673  0.85708259    -0.39600
N4554       N  0.99367007  0.65271401  0.87630581    -0.37200
N4555       N  0.97128676  0.60722281  0.91227064    -0.38300
N4556       N  0.94097855  0.60788463  0.89384938    -0.39900
C4557       C  0.88123492  0.66044191  0.75110550    -0.04900
C4558       C  0.88667165  0.65261066  0.74298069     0.09300
C4559       C  0.89162672  0.64185950  0.74705622    -0.02300
C4560       C  0.89107966  0.63889482  0.75923032    -0.00500
C4561       C  0.88556946  0.64669628  0.76739049    -0.04100
C4562       C  0.88069301  0.65751688  0.76326821     0.02900
C4563       C  0.88729593  0.65583245  0.73011646     0.09700
C4564       C  0.89722909  0.63384854  0.73866203     0.35600
C4565       C  0.87536614  0.66581544  0.77156991     0.39000
C4566       C  0.89653504  0.66320606  0.72597880    -0.04500
C4567       C  0.89678917  0.66683583  0.71400386     0.02600
C4568       C  0.88776220  0.66313090  0.70608891    -0.04100
C4569       C  0.87863837  0.65554552  0.71019389    -0.00300
C4570       C  0.87842397  0.65189801  0.72218358    -0.02900
C4571       C  0.90569421  0.66717801  0.73412868     0.36400
C4572       C  0.86913078  0.65198558  0.70225703     0.40000
C4573       C  0.90643049  0.67430027  0.70981392     0.39100
C4574       C  0.86891860  0.64432690  0.72646503     0.36000
C4575       C  0.87620418  0.67153505  0.74690091     0.36700
C4576       C  0.89581605  0.62762494  0.76326679     0.40000
N4577       N  0.91411538  0.68025954  0.70647280    -0.38100
N4578       N  0.91297371  0.67035313  0.74065660    -0.39700
N4579       N  0.86152353  0.64918828  0.69593121    -0.37400
N4580       N  0.86133979  0.63828627  0.72989747    -0.39800
N4581       N  0.90167527  0.62749365  0.73191213    -0.39600
N4582       N  0.89957256  0.61860787  0.76645659    -0.37200
N4583       N  0.87112078  0.67244998  0.77817927    -0.38300
N4584       N  0.87221263  0.68037716  0.74351238    -0.39900
C4585       C  0.80897452  0.64940526  0.84634701    -0.04900
C4586       C  0.80466625  0.64053453  0.85404901     0.09300
C4587       C  0.81232991  0.63147792  0.85801736    -0.02300
C4588       C  0.82412118  0.63090723  0.85379813    -0.00500
C4589       C  0.82833717  0.63948395  0.84561123    -0.04100
C4590       C  0.82077808  0.64893630  0.84218051     0.02900
C4591       C  0.79189597  0.64054100  0.85765746     0.09700
C4592       C  0.80800844  0.62270189  0.86640243     0.35600
C4593       C  0.82519951  0.65841623  0.83465307     0.39000
C4594       C  0.78347905  0.63432988  0.85075390    -0.04500
C4595       C  0.77135367  0.63461939  0.85386570     0.02600
C4596       C  0.76755932  0.64133582  0.86376776    -0.04100
C4597       C  0.77601353  0.64745833  0.87073900    -0.00300
C4598       C  0.78816975  0.64700110  0.86772118    -0.02900
C4599       C  0.78728702  0.62793042  0.84023238     0.36400
C4600       C  0.77221979  0.65411397  0.88109945     0.40000
C4601       C  0.76273658  0.62836614  0.84659935     0.39100
C4602       C  0.79686559  0.65329978  0.87484043     0.36000
C4603       C  0.80119982  0.65902157  0.84272399     0.36700
C4604       C  0.83171280  0.62122618  0.85760871     0.40000
N4605       N  0.75585119  0.62336797  0.84082653    -0.38100
N4606       N  0.79032609  0.62289155  0.83180051    -0.39700
N4607       N  0.76920778  0.65941034  0.88938224    -0.37400
N4608       N  0.80384530  0.65831531  0.88048199    -0.39800
N4609       N  0.80456242  0.61574330  0.87313698    -0.39600
N4610       N  0.83775475  0.61351418  0.86071510    -0.37200
N4611       N  0.82869774  0.66601896  0.82868313    -0.38300
N4612       N  0.79497480  0.66669419  0.83989780    -0.39900
C4613       C  0.61942651  0.87572549  0.64417324    -0.04900
C4614       C  0.61039624  0.86722808  0.64595431     0.09300
C4615       C  0.61188360  0.85829206  0.65458808    -0.02300
C4616       C  0.62217187  0.85811785  0.66174932    -0.00500
C4617       C  0.63121680  0.86670591  0.66007632    -0.04100
C4618       C  0.62987610  0.87537996  0.65108435     0.02900
C4619       C  0.59915921  0.86794546  0.63890726     0.09700
C4620       C  0.60283756  0.84922367  0.65601166     0.35600
C4621       C  0.63907573  0.88418398  0.64912116     0.39000
C4622       C  0.59789989  0.86138203  0.62831381    -0.04500
C4623       C  0.58755178  0.86259438  0.62134406     0.02600
C4624       C  0.57832305  0.87029808  0.62501954    -0.04100
C4625       C  0.57951797  0.87666474  0.63580419    -0.00300
C4626       C  0.58991329  0.87549994  0.64268883    -0.02900
C4627       C  0.60724866  0.85330727  0.62466014     0.36400
C4628       C  0.57023050  0.88471483  0.63969569     0.40000
C4629       C  0.58628773  0.85562537  0.61057753     0.39100
C4630       C  0.59116157  0.88212768  0.65367583     0.36000
C4631       C  0.61785649  0.88490767  0.63527147     0.36700
C4632       C  0.62353590  0.84889847  0.67064130     0.40000
N4633       N  0.58528626  0.85007243  0.60198156    -0.38100
N4634       N  0.61468654  0.84681389  0.62179875    -0.39700
N4635       N  0.56282222  0.89111472  0.64283901    -0.37400
N4636       N  0.59217868  0.88740758  0.66243914    -0.39800
N4637       N  0.59566272  0.84193468  0.65706111    -0.39600
N4638       N  0.62459205  0.84156138  0.67775992    -0.37200
N4639       N  0.64641506  0.89119388  0.64747487    -0.38300
N4640       N  0.61651936  0.89222907  0.62818544    -0.39900
C4641       C  0.74793357  0.84731365  0.66879220    -0.04900
C4642       C  0.75276374  0.85715178  0.66271582     0.09300
C4643       C  0.74560524  0.86719915  0.66054331    -0.02300
C4644       C  0.73370337  0.86747460  0.66450653    -0.00500
C4645       C  0.72891691  0.85775244  0.67087881    -0.04100
C4646       C  0.73609739  0.84763984  0.67294783     0.02900
C4647       C  0.76544685  0.85700086  0.65864816     0.09700
C4648       C  0.75058545  0.87731626  0.65430858     0.35600
C4649       C  0.73124833  0.83742559  0.67913116     0.39000
C4650       C  0.76858713  0.85120450  0.64798188    -0.04500
C4651       C  0.78049744  0.85122706  0.64406200     0.02600
C4652       C  0.78938463  0.85688948  0.65087520    -0.04100
C4653       C  0.78622509  0.86279714  0.66149067    -0.00300
C4654       C  0.77428698  0.86286355  0.66535123    -0.02900
C4655       C  0.75953078  0.84522391  0.64104174     0.36400
C4656       C  0.79529993  0.86853443  0.66861710     0.40000
C4657       C  0.78356140  0.84575788  0.63280108     0.39100
C4658       C  0.77107762  0.86887455  0.67628941     0.36000
C4659       C  0.75517365  0.83684121  0.67075539     0.36700
C4660       C  0.72655115  0.87796202  0.66234211     0.40000
N4661       N  0.78602496  0.84149397  0.62377455    -0.38100
N4662       N  0.75230520  0.84040706  0.63553884    -0.39700
N4663       N  0.80254174  0.87310743  0.67430593    -0.37400
N4664       N  0.76848368  0.87368971  0.68499640    -0.39800
N4665       N  0.75463815  0.88537572  0.64938206    -0.39600
N4666       N  0.72087227  0.88634013  0.66055986    -0.37200
N4667       N  0.72738851  0.82928572  0.68408331    -0.38300
N4668       N  0.76092579  0.82845811  0.67225730    -0.39900
C4669       C  0.65065125  0.86350806  0.91822289    -0.04900
C4670       C  0.65916155  0.86285739  0.92738282     0.09300
C4671       C  0.66876436  0.85487789  0.92640474    -0.02300
C4672       C  0.66979326  0.84745362  0.91636546    -0.00500
C4673       C  0.66117080  0.84792837  0.90723759    -0.04100
C4674       C  0.65160101  0.85603690  0.90820360     0.02900
C4675       C  0.65776474  0.87025723  0.93832329     0.09700
C4676       C  0.67759628  0.85433313  0.93577022     0.35600
C4677       C  0.64246646  0.85643587  0.89912292     0.39000
C4678       C  0.65030274  0.86631824  0.94757416    -0.04500
C4679       C  0.64921650  0.87303477  0.95808449     0.02600
C4680       C  0.65566064  0.88374877  0.95945454    -0.04100
C4681       C  0.66289470  0.88784030  0.95001003    -0.00300
C4682       C  0.66396188  0.88107789  0.93949839    -0.02900
C4683       C  0.64376640  0.85528631  0.94625350     0.36400
C4684       C  0.66954016  0.89881497  0.95118773     0.40000
C4685       C  0.64115014  0.86905511  0.96732028     0.39100
C4686       C  0.67152848  0.88516118  0.92989754     0.36000
C4687       C  0.64088531  0.87186316  0.91917984     0.36700
C4688       C  0.67994339  0.83958792  0.91530136     0.40000
N4689       N  0.63469699  0.86587158  0.97466637    -0.38100
N4690       N  0.63855068  0.84649647  0.94515307    -0.39700
N4691       N  0.67482646  0.90758900  0.95207008    -0.37400
N4692       N  0.67757361  0.88837673  0.92222665    -0.39800
N4693       N  0.68465016  0.85393485  0.94323576    -0.39600
N4694       N  0.68804390  0.83331636  0.91444883    -0.37200
N4695       N  0.63514693  0.85677515  0.89191194    -0.38300
N4696       N  0.63312049  0.87855152  0.91998005    -0.39900
C4697       C  0.68770793  0.74318038  0.86777071    -0.04900
C4698       C  0.67894290  0.73489618  0.86431762     0.09300
C4699       C  0.66754639  0.73893575  0.86104077    -0.02300
C4700       C  0.66492579  0.75119738  0.86118133    -0.00500
C4701       C  0.67369009  0.75950979  0.86462426    -0.04100
C4702       C  0.68507514  0.75544003  0.86800139     0.02900
C4703       C  0.68176404  0.72189056  0.86419119     0.09700
C4704       C  0.65854501  0.73043836  0.85747549     0.35600
C4705       C  0.69421735  0.76388566  0.87133983     0.39000
C4706       C  0.68116500  0.71523232  0.87479766    -0.04500
C4707       C  0.68466879  0.70319470  0.87488968     0.02600
C4708       C  0.68869731  0.69772810  0.86433891    -0.04100
C4709       C  0.68885529  0.70426483  0.85363699    -0.00300
C4710       C  0.68538338  0.71630815  0.85355947    -0.02900
C4711       C  0.67701837  0.72084038  0.88563039     0.36400
C4712       C  0.69252688  0.69854795  0.84268430     0.40000
C4713       C  0.68458248  0.69657536  0.88593826     0.39100
C4714       C  0.68561292  0.72300569  0.84256310     0.36000
C4715       C  0.69952453  0.73906343  0.87084652     0.36700
C4716       C  0.65310786  0.75524536  0.85803779     0.40000
N4717       N  0.68454947  0.69130040  0.89475962    -0.38100
N4718       N  0.67366822  0.72534241  0.89424596    -0.39700
N4719       N  0.69542368  0.69394242  0.83395889    -0.37400
N4720       N  0.68574298  0.72833994  0.83377901    -0.39800
N4721       N  0.65139486  0.72363395  0.85459934    -0.39600
N4722       N  0.64367074  0.75848456  0.85556478    -0.37200
N4723       N  0.70152145  0.77061650  0.87399823    -0.38300
N4724       N  0.70895373  0.73574765  0.87324865    -0.39900
C4725       C  0.67370797  0.85122839  0.79496119    -0.04900
C4726       C  0.66525276  0.84773641  0.78639828     0.09300
C4727       C  0.65549255  0.84065712  0.78983576    -0.02300
C4728       C  0.65447998  0.83663590  0.80165440    -0.00500
C4729       C  0.66335598  0.83946665  0.81006547    -0.04100
C4730       C  0.67279777  0.84708348  0.80676297     0.02900
C4731       C  0.66725618  0.85043679  0.77353195     0.09700
C4732       C  0.64668826  0.83720746  0.78108367     0.35600
C4733       C  0.68193702  0.85017148  0.81530458     0.39000
C4734       C  0.67259976  0.84178540  0.76621467    -0.04500
C4735       C  0.67406004  0.84389066  0.75395957     0.02600
C4736       C  0.67045180  0.85483251  0.74894494    -0.04100
C4737       C  0.66544708  0.86365580  0.75638103    -0.00300
C4738       C  0.66377241  0.86141898  0.76862328    -0.02900
C4739       C  0.67665093  0.83069464  0.77138122     0.36400
C4740       C  0.66242125  0.87520004  0.75154140     0.40000
C4741       C  0.67890720  0.83457739  0.74648724     0.39100
C4742       C  0.65853640  0.87042155  0.77620434     0.36000
C4743       C  0.68360479  0.85870807  0.79147695     0.36700
C4744       C  0.64419742  0.82972088  0.80520675     0.40000
N4745       N  0.68275939  0.82710729  0.74056574    -0.38100
N4746       N  0.67990588  0.82190219  0.77558589    -0.39700
N4747       N  0.66007755  0.88443582  0.74769175    -0.37400
N4748       N  0.65438873  0.87762115  0.78226032    -0.39800
N4749       N  0.63970424  0.83440677  0.77407924    -0.39600
N4750       N  0.63596281  0.82427404  0.80808093    -0.37200
N4751       N  0.68924090  0.85264337  0.82210555    -0.38300
N4752       N  0.69148350  0.86469059  0.78867540    -0.39900
loop_ 
_geom_bond_atom_site_label_1 
_geom_bond_atom_site_label_2 
_geom_bond_distance 
_geom_bond_site_symmetry_2 
_ccdc_geom_bond_type 
N1            N2   1.321       .  A
N1            C5   1.345       .  A
N1           Cu9   2.065       .  S
N2            C3   1.345       .  A
N2           Cu8   2.081       .  S
C3            C4   1.386       .  A
C3            H6   1.081       .  S
C4            C5   1.383       .  A
C4         C4729   1.487       .  S
C5            H7   1.082       .  S
Cu8          N11   2.080       .  S
Cu9          N19   2.066       .  S
Cu10         N12   2.086       .  S
Cu10         N18   2.086       .  S
N11          N12   1.324       .  A
N11          C15   1.345       .  A
N12          C13   1.348       .  A
C13          C14   1.385       .  A
C13          H16   1.082       .  S
C14          C15   1.382       .  A
C14        C4701   1.488       .  S
C15          H17   1.086       .  S
N18          N19   1.323       .  A
N18          C22   1.347       .  A
N19          C20   1.343       .  A
C20          C21   1.382       .  A
C20          H23   1.082       .  S
C21          C22   1.387       .  A
C21        C4673   1.488       .  S
C22          H24   1.082       .  S
N25          N26   1.322       .  A
N25          C29   1.348       .  A
N25         Cu33   2.084       .  S
N26          C27   1.345       .  A
N26         Cu32   2.075       .  S
C27          C28   1.384       .  A
C27          H30   1.081       .  S
C28          C29   1.387       .  A
C28        C4645   1.492       .  S
C29          H31   1.081       .  S
Cu32         N35   2.075       .  S
Cu33         N43   2.084       .  S
Cu34         N36   2.080       .  S
Cu34         N42   2.080       .  S
N35          N36   1.322       .  A
N35          C39   1.345       .  A
N36          C37   1.347       .  A
C37          C38   1.386       .  A
C37          H40   1.081       .  S
C38          C39   1.384       .  A
C38        C4736   1.490       .  S
C39          H41   1.081       .  S
N42          N43   1.324       .  A
N42          C46   1.345       .  A
N43          C44   1.347       .  A
C44          C45   1.385       .  A
C44          H47   1.082       .  S
C45          C46   1.384       .  A
C45        C4617   1.490       .  S
C46          H48   1.082       .  S
N49          N50   1.321       .  A
N49          C53   1.345       .  A
N49         Cu57   2.074       .  S
N50          C51   1.344       .  A
N50         Cu56   2.068       .  S
C51          C52   1.385       .  A
C51          H54   1.081       .  S
C52          C53   1.386       .  A
C52        C4589   1.490       .  S
C53          H55   1.081       .  S
Cu56         N59   2.068       .  S
Cu57         N67   2.074       .  S
Cu58         N60   2.090       .  S
Cu58         N66   2.090       .  S
N59          N60   1.323       .  A
N59          C63   1.343       .  A
N60          C61   1.349       .  A
C61          C62   1.387       .  A
C61          H64   1.081       .  S
C62          C63   1.381       .  A
C62        C4561   1.487       .  S
C63          H65   1.082       .  S
N66          N67   1.323       .  A
N66          C70   1.347       .  A
N67          C68   1.346       .  A
C68          C69   1.384       .  A
C68          H71   1.082       .  S
C69          C70   1.387       .  A
C69        C4540   1.493       .  S
C70          H72   1.081       .  S
N73          N74   1.323       .  A
N73          C77   1.349       .  A
N73         Cu81   2.088       .  S
N74          C75   1.344       .  A
N74         Cu80   2.069       .  S
C75          C76   1.380       .  A
C75          H78   1.081       .  S
C76          C77   1.385       .  A
C76        C4708   1.484       .  S
C77          H79   1.081       .  S
Cu80         N83   2.069       .  S
Cu81         N91   2.088       .  S
Cu82         N84   2.072       .  S
Cu82         N90   2.072       .  S
N83          N84   1.321       .  A
N83          C87   1.344       .  A
N84          C85   1.346       .  A
C85          C86   1.384       .  A
C85          H88   1.082       .  S
C86          C87   1.382       .  A
C86        C4596   1.482       .  S
C87          H89   1.081       .  S
N90          N91   1.323       .  A
N90          C94   1.344       .  A
N91          C92   1.348       .  A
C92          C93   1.387       .  A
C92          H95   1.082       .  S
C93          C94   1.383       .  A
C93        C4505   1.490       .  S
C94          H96   1.082       .  S
N97          N98   1.321       .  A
N97         C101   1.346       .  A
N97        Cu105   2.068       .  S
N98          C99   1.343       .  A
N98        Cu104   2.072       .  S
C99         C100   1.384       .  A
C99         H102   1.081       .  S
C100        C101   1.383       .  A
C100       C4477   1.485       .  S
C101        H103   1.081       .  S
Cu104       N107   2.072       .  S
Cu105       N115   2.068       .  S
Cu106       N108   2.084       .  S
Cu106       N114   2.084       .  S
N107        N108   1.323       .  A
N107        C111   1.344       .  A
N108        C109   1.348       .  A
C109        C110   1.385       .  A
C109        H112   1.082       .  S
C110        C111   1.381       .  A
C110       C4652   1.486       .  S
C111        H113   1.081       .  S
N114        N115   1.322       .  A
N114        C118   1.346       .  A
N115        C116   1.344       .  A
C116        C117   1.383       .  A
C116        H119   1.082       .  S
C117        C118   1.387       .  A
C117       C4449   1.492       .  S
C118        H120   1.082       .  S
N121        N122   1.322       .  A
N121        C125   1.348       .  A
N121       Cu129   2.081       .  S
N122        C123   1.342       .  A
N122       Cu128   2.060       .  S
C123        C124   1.380       .  A
C123        H126   1.081       .  S
C124        C125   1.386       .  A
C124       C4568   1.484       .  S
C125        H127   1.082       .  S
Cu128       N131   2.060       .  S
Cu129       N139   2.082       .  S
Cu130       N132   2.078       .  S
Cu130       N138   2.079       .  S
N131        N132   1.321       .  A
N131        C135   1.342       .  A
N132        C133   1.347       .  A
C133        C134   1.386       .  A
C133        H136   1.081       .  S
C134        C135   1.382       .  A
C134       C4484   1.486       .  S
C135        H137   1.081       .  S
N138        N139   1.324       .  A
N138        C142   1.346       .  A
N139        C140   1.346       .  A
C140        C141   1.384       .  A
C140        H143   1.082       .  S
C141        C142   1.383       .  A
C141       C4421   1.487       .  S
C142        H144   1.082       .  S
N145        N146   1.322       .  A
N145        C149   1.346       .  A
N145       Cu153   2.073       .  S
N146        C147   1.343       .  A
N146       Cu152   2.071       .  S
C147        C148   1.383       .  A
C147        H150   1.081       .  S
C148        C149   1.384       .  A
C148       C4365   1.485       .  S
C149        H151   1.081       .  S
Cu152       N155   2.072       .  S
Cu153       N163   2.073       .  S
Cu154       N156   2.085       .  S
Cu154       N162   2.086       .  S
N155        N156   1.321       .  A
N155        C159   1.345       .  A
N156        C157   1.348       .  A
C157        C158   1.388       .  A
C157        H160   1.082       .  S
C158        C159   1.384       .  A
C158       C4393   1.493       .  S
C159        H161   1.082       .  S
N162        N163   1.322       .  A
N162        C166   1.345       .  A
N163        C164   1.346       .  A
C164        C165   1.387       .  A
C164        H167   1.082       .  S
C165        C166   1.388       .  A
C165       C4337   1.496       .  S
C166        H168   1.082       .  S
N169        N170   1.321       .  A
N169        C173   1.346       .  A
N169       Cu177   2.074       .  S
N170        C171   1.340       .  A
N170       Cu176   2.053       .  S
C171        C172   1.380       .  A
C171        H174   1.082       .  S
C172        C173   1.386       .  A
C172       C4316   1.483       .  S
C173        H175   1.082       .  S
Cu176       N179   2.053       .  S
Cu177       N187   2.075       .  S
Cu178       N180   2.073       .  S
Cu178       N186   2.074       .  S
N179        N180   1.321       .  A
N179        C183   1.341       .  A
N180        C181   1.346       .  A
C181        C182   1.384       .  A
C181        H184   1.081       .  S
C182        C183   1.379       .  A
C182       C4372   1.479       .  S
C183        H185   1.081       .  S
N186        N187   1.323       .  A
N186        C190   1.344       .  A
N187        C188   1.345       .  A
C188        C189   1.384       .  A
C188        H191   1.082       .  S
C189        C190   1.383       .  A
C189       C4288   1.487       .  S
C190        H192   1.082       .  S
N193        N194   1.322       .  A
N193        C197   1.347       .  A
N193       Cu201   2.089       .  S
N194        C195   1.344       .  A
N194       Cu200   2.066       .  S
C195        C196   1.383       .  A
C195        H198   1.081       .  S
C196        C197   1.388       .  A
C196       C4253   1.492       .  S
C197        H199   1.081       .  S
Cu200       N203   2.065       .  S
Cu201       N211   2.089       .  S
Cu202       N204   2.069       .  S
Cu202       N210   2.070       .  S
N203        N204   1.321       .  A
N203        C207   1.342       .  A
N204        C205   1.345       .  A
C205        C206   1.385       .  A
C205        H208   1.081       .  S
C206        C207   1.383       .  A
C206       C4309   1.486       .  S
C207        H209   1.082       .  S
N210        N211   1.323       .  A
N210        C214   1.344       .  A
N211        C212   1.347       .  A
C212        C213   1.388       .  A
C212        H215   1.082       .  S
C213        C214   1.384       .  A
C213       C4225   1.494       .  S
C214        H216   1.082       .  S
N217        N218   1.323       .  A
N217        C221   1.347       .  A
N217       Cu225   2.081       .  S
N218        C219   1.346       .  A
N218       Cu224   2.081       .  S
C219        C220   1.384       .  A
C219        H222   1.082       .  S
C220        C221   1.384       .  A
C220       C4197   1.488       .  S
C221        H223   1.082       .  S
Cu224       N227   2.080       .  S
Cu225       N235   2.080       .  S
Cu226       N228   2.072       .  S
Cu226       N234   2.072       .  S
N227        N228   1.320       .  A
N227        C231   1.344       .  A
N228        C229   1.346       .  A
C229        C230   1.388       .  A
C229        H232   1.081       .  S
C230        C231   1.389       .  A
C230       C4176   1.498       .  S
C231        H233   1.081       .  S
N234        N235   1.322       .  A
N234        C238   1.343       .  A
N235        C236   1.346       .  A
C236        C237   1.387       .  A
C236        H239   1.082       .  S
C237        C238   1.385       .  A
C237       C4141   1.492       .  S
C238        H240   1.082       .  S
N241        N242   1.321       .  A
N241        C245   1.347       .  A
N241       Cu249   2.076       .  S
N242        C243   1.344       .  A
N242       Cu248   2.076       .  S
C243        C244   1.386       .  A
C243        H246   1.081       .  S
C244        C245   1.387       .  A
C244       C4169   1.493       .  S
C245        H247   1.081       .  S
Cu248       N251   2.076       .  S
Cu249       N259   2.077       .  S
Cu250       N252   2.085       .  S
Cu250       N258   2.086       .  S
N251        N252   1.323       .  A
N251        C255   1.344       .  A
N252        C253   1.349       .  A
C253        C254   1.387       .  A
C253        H256   1.082       .  S
C254        C255   1.383       .  A
C254       C4260   1.490       .  S
C255        H257   1.081       .  S
N258        N259   1.324       .  A
N258        C262   1.346       .  A
N259        C260   1.345       .  A
C260        C261   1.384       .  A
C260        H263   1.082       .  S
C261        C262   1.385       .  A
C261       C4113   1.490       .  S
C262        H264   1.082       .  S
N265        N266   1.323       .  A
N265        C269   1.347       .  A
N265       Cu273   2.080       .  S
N266        C267   1.347       .  A
N266       Cu272   2.090       .  S
C267        C268   1.387       .  A
C267        H270   1.081       .  S
C268        C269   1.385       .  A
C268       C4400   1.493       .  S
C269        H271   1.081       .  S
Cu272       N275   2.090       .  S
Cu273       N283   2.079       .  S
Cu274       N276   2.072       .  S
Cu274       N282   2.072       .  S
N275        N276   1.323       .  A
N275        C279   1.348       .  A
N276        C277   1.346       .  A
C277        C278   1.382       .  A
C277        H280   1.082       .  S
C278        C279   1.386       .  A
C278       C4204   1.488       .  S
C279        H281   1.081       .  S
N282        N283   1.322       .  A
N282        C286   1.344       .  A
N283        C284   1.347       .  A
C284        C285   1.385       .  A
C284        H287   1.082       .  S
C285        C286   1.383       .  A
C285       C4085   1.487       .  S
C286        H288   1.082       .  S
N289        N290   1.323       .  A
N289        C293   1.348       .  A
N289       Cu297   2.085       .  S
N290        C291   1.342       .  A
N290       Cu296   2.066       .  S
C291        C292   1.381       .  A
C291        H294   1.081       .  S
C292        C293   1.386       .  A
C292       C4029   1.486       .  S
C293        H295   1.081       .  S
Cu296       N299   2.065       .  S
Cu297       N307   2.085       .  S
Cu298       N300   2.063       .  S
Cu298       N306   2.064       .  S
N299        N300   1.321       .  A
N299        C303   1.343       .  A
N300        C301   1.344       .  A
C301        C302   1.382       .  A
C301        H304   1.081       .  S
C302        C303   1.383       .  A
C302       C4057   1.481       .  S
C303        H305   1.081       .  S
N306        N307   1.322       .  A
N306        C310   1.343       .  A
N307        C308   1.346       .  A
C308        C309   1.388       .  A
C308        H311   1.082       .  S
C309        C310   1.383       .  A
C309       C4001   1.491       .  S
C310        H312   1.082       .  S
N313        N314   1.323       .  A
N313        C317   1.348       .  A
N313       Cu321   2.087       .  S
N314        C315   1.343       .  A
N314       Cu320   2.069       .  S
C315        C316   1.382       .  A
C315        H318   1.081       .  S
C316        C317   1.387       .  A
C316       C3973   1.489       .  S
C317        H319   1.081       .  S
Cu320       N323   2.068       .  S
Cu321       N331   2.087       .  S
Cu322       N324   2.072       .  S
Cu322       N330   2.073       .  S
N323        N324   1.321       .  A
N323        C327   1.345       .  A
N324        C325   1.345       .  A
C325        C326   1.383       .  A
C325        H328   1.081       .  S
C326        C327   1.382       .  A
C326       C4036   1.482       .  S
C327        H329   1.081       .  S
N330        N331   1.324       .  A
N330        C334   1.344       .  A
N331        C332   1.348       .  A
C332        C333   1.385       .  A
C332        H335   1.082       .  S
C333        C334   1.382       .  A
C333       C3952   1.487       .  S
C334        H336   1.082       .  S
N337        N338   1.321       .  A
N337        C341   1.346       .  A
N337       Cu345   2.067       .  S
N338        C339   1.340       .  A
N338       Cu344   2.057       .  S
C339        C340   1.379       .  A
C339        H342   1.081       .  S
C340        C341   1.382       .  A
C340       C3924   1.476       .  S
C341        H343   1.082       .  S
Cu344       N347   2.057       .  S
Cu345       N355   2.068       .  S
Cu346       N348   2.077       .  S
Cu346       N354   2.078       .  S
N347        N348   1.321       .  A
N347        C351   1.342       .  A
N348        C349   1.346       .  A
C349        C350   1.387       .  A
C349        H352   1.081       .  S
C350        C351   1.381       .  A
C350       C3980   1.486       .  S
C351        H353   1.081       .  S
N354        N355   1.323       .  A
N354        C358   1.345       .  A
N355        C356   1.343       .  A
C356        C357   1.382       .  A
C356        H359   1.082       .  S
C357        C358   1.384       .  A
C357       C3889   1.485       .  S
C358        H360   1.082       .  S
N361        N362   1.321       .  A
N361        C365   1.347       .  A
N361       Cu369   2.080       .  S
N362        C363   1.344       .  A
N362       Cu368   2.067       .  S
C363        C364   1.384       .  A
C363        H366   1.081       .  S
C364        C365   1.386       .  A
C364       C3861   1.489       .  S
C365        H367   1.081       .  S
Cu368       N371   2.066       .  S
Cu369       N379   2.080       .  S
Cu370       N372   2.084       .  S
Cu370       N378   2.085       .  S
N371        N372   1.322       .  A
N371        C375   1.342       .  A
N372        C373   1.348       .  A
C373        C374   1.388       .  A
C373        H376   1.082       .  S
C374        C375   1.381       .  A
C374       C3840   1.489       .  S
C375        H377   1.082       .  S
N378        N379   1.323       .  A
N378        C382   1.346       .  A
N379        C380   1.346       .  A
C380        C381   1.386       .  A
C380        H383   1.082       .  S
C381        C382   1.387       .  A
C381       C3805   1.496       .  S
C382        H384   1.082       .  S
N385        N386   1.322       .  A
N385        C389   1.348       .  A
N385       Cu393   2.084       .  S
N386        C387   1.342       .  A
N386       Cu392   2.058       .  S
C387        C388   1.380       .  A
C387        H390   1.081       .  S
C388        C389   1.387       .  A
C388       C3833   1.486       .  S
C389        H391   1.081       .  S
Cu392       N395   2.058       .  S
Cu393       N403   2.085       .  S
Cu394       N396   2.065       .  S
Cu394       N402   2.066       .  S
N395        N396   1.321       .  A
N395        C399   1.342       .  A
N396        C397   1.344       .  A
C397        C398   1.383       .  A
C397        H400   1.082       .  S
C398        C399   1.380       .  A
C398       C3917   1.479       .  S
C399        H401   1.081       .  S
N402        N403   1.323       .  A
N402        C406   1.343       .  A
N403        C404   1.346       .  A
C404        C405   1.386       .  A
C404        H407   1.082       .  S
C405        C406   1.382       .  A
C405       C3777   1.489       .  S
C406        H408   1.082       .  S
N409        N410   1.322       .  A
N409        C413   1.343       .  A
N409       Cu417   2.059       .  S
N410        C411   1.344       .  A
N410       Cu416   2.076       .  S
C411        C412   1.385       .  A
C411        H414   1.081       .  S
C412        C413   1.381       .  A
C412       C4064   1.483       .  S
C413        H415   1.082       .  S
Cu416       N419   2.077       .  S
Cu417       N427   2.060       .  S
Cu418       N420   2.078       .  S
Cu418       N426   2.077       .  S
N419        N420   1.322       .  A
N419        C423   1.345       .  A
N420        C421   1.346       .  A
C421        C422   1.385       .  A
C421        H424   1.081       .  S
C422        C423   1.385       .  A
C422       C3868   1.489       .  S
C423        H425   1.081       .  S
N426        N427   1.322       .  A
N426        C430   1.345       .  A
N427        C428   1.343       .  A
C428        C429   1.381       .  A
C428        H431   1.082       .  S
C429        C430   1.385       .  A
C429       C3749   1.484       .  S
C430        H432   1.081       .  S
N433        N434   1.321       .  A
N433        C437   1.346       .  A
N433       Cu441   2.071       .  S
N434        C435   1.344       .  A
N434       Cu440   2.068       .  S
C435        C436   1.383       .  A
C435        H438   1.081       .  S
C436        C437   1.384       .  A
C436       C3693   1.484       .  S
C437        H439   1.082       .  S
Cu440       N443   2.068       .  S
Cu441       N451   2.072       .  S
Cu442       N444   2.089       .  S
Cu442       N450   2.089       .  S
N443        N444   1.322       .  A
N443        C447   1.343       .  A
N444        C445   1.349       .  A
C445        C446   1.388       .  A
C445        H448   1.081       .  S
C446        C447   1.382       .  A
C446       C3721   1.490       .  S
C447        H449   1.081       .  S
N450        N451   1.323       .  A
N450        C454   1.346       .  A
N451        C452   1.345       .  A
C452        C453   1.384       .  A
C452        H455   1.082       .  S
C453        C454   1.387       .  A
C453       C3672   1.492       .  S
C454        H456   1.082       .  S
N457        N458   1.321       .  A
N457        C461   1.346       .  A
N457       Cu465   2.078       .  S
N458        C459   1.344       .  A
N458       Cu464   2.069       .  S
C459        C460   1.384       .  A
C459        H462   1.081       .  S
C460        C461   1.386       .  A
C460       C3637   1.489       .  S
C461        H463   1.081       .  S
Cu464       N467   2.068       .  S
Cu465       N475   2.078       .  S
Cu466       N468   2.078       .  S
Cu466       N474   2.078       .  S
N467        N468   1.322       .  A
N467        C471   1.344       .  A
N468        C469   1.346       .  A
C469        C470   1.384       .  A
C469        H472   1.081       .  S
C470        C471   1.382       .  A
C470       C3700   1.484       .  S
C471        H473   1.081       .  S
N474        N475   1.323       .  A
N474        C478   1.346       .  A
N475        C476   1.346       .  A
C476        C477   1.384       .  A
C476        H479   1.081       .  S
C477        C478   1.384       .  A
C477       C3609   1.488       .  S
C478        H480   1.081       .  S
N481        N482   1.321       .  A
N481        C485   1.346       .  A
N481       Cu489   2.076       .  S
N482        C483   1.344       .  A
N482       Cu488   2.070       .  S
C483        C484   1.384       .  A
C483        H486   1.081       .  S
C484        C485   1.387       .  A
C484       C3581   1.491       .  S
C485        H487   1.081       .  S
Cu488       N491   2.070       .  S
Cu489       N499   2.076       .  S
Cu490       N492   2.076       .  S
Cu490       N498   2.076       .  S
N491        N492   1.321       .  A
N491        C495   1.343       .  A
N492        C493   1.347       .  A
C493        C494   1.386       .  A
C493        H496   1.082       .  S
C494        C495   1.384       .  A
C494       C3644   1.490       .  S
C495        H497   1.082       .  S
N498        N499   1.322       .  A
N498        C502   1.344       .  A
N499        C500   1.345       .  A
C500        C501   1.387       .  A
C500        H503   1.082       .  S
C501        C502   1.386       .  A
C501       C3553   1.494       .  S
C502        H504   1.082       .  S
N505        N506   1.322       .  A
N505        C509   1.347       .  A
N505       Cu513   2.077       .  S
N506        C507   1.343       .  A
N506       Cu512   2.066       .  S
C507        C508   1.381       .  A
C507        H510   1.081       .  S
C508        C509   1.386       .  A
C508       C3525   1.485       .  S
C509        H511   1.081       .  S
Cu512       N515   2.066       .  S
Cu513       N523   2.078       .  S
Cu514       N516   2.072       .  S
Cu514       N522   2.072       .  S
N515        N516   1.321       .  A
N515        C519   1.343       .  A
N516        C517   1.346       .  A
C517        C518   1.386       .  A
C517        H520   1.081       .  S
C518        C519   1.384       .  A
C518       C3497   1.489       .  S
C519        H521   1.081       .  S
N522        N523   1.323       .  A
N522        C526   1.343       .  A
N523        C524   1.345       .  A
C524        C525   1.385       .  A
C524        H527   1.082       .  S
C525        C526   1.383       .  A
C525       C3469   1.487       .  S
C526        H528   1.082       .  S
N529        N530   1.322       .  A
N529        C533   1.346       .  A
N529       Cu537   2.076       .  S
N530        C531   1.344       .  A
N530       Cu536   2.072       .  S
C531        C532   1.385       .  A
C531        H534   1.082       .  S
C532        C533   1.386       .  A
C532       C3504   1.490       .  S
C533        H535   1.082       .  S
Cu536       N539   2.072       .  S
Cu537       N547   2.077       .  S
Cu538       N540   2.084       .  S
Cu538       N546   2.085       .  S
N539        N540   1.322       .  A
N539        C543   1.344       .  A
N540        C541   1.348       .  A
C541        C542   1.388       .  A
C541        H544   1.081       .  S
C542        C543   1.384       .  A
C542       C3588   1.492       .  S
C543        H545   1.081       .  S
N546        N547   1.323       .  A
N546        C550   1.346       .  A
N547        C548   1.346       .  A
C548        C549   1.384       .  A
C548        H551   1.082       .  S
C549        C550   1.386       .  A
C549       C3441   1.490       .  S
C550        H552   1.082       .  S
N553        N554   1.324       .  A
N553        C557   1.350       .  A
N553       Cu561   2.091       .  S
N554        C555   1.344       .  A
N554       Cu560   2.081       .  S
C555        C556   1.383       .  A
C555        H558   1.081       .  S
C556        C557   1.387       .  A
C556       C3728   1.491       .  S
C557        H559   1.081       .  S
Cu560       N563   2.080       .  S
Cu561       N571   2.091       .  S
Cu562       N564   2.058       .  S
Cu562       N570   2.058       .  S
N563        N564   1.319       .  A
N563        C567   1.347       .  A
N564        C565   1.342       .  A
C565        C566   1.384       .  A
C565        H568   1.081       .  S
C566        C567   1.390       .  A
C566       C3532   1.493       .  S
C567        H569   1.081       .  S
N570        N571   1.322       .  A
N570        C574   1.342       .  A
N571        C572   1.348       .  A
C572        C573   1.388       .  A
C572        H575   1.082       .  S
C573        C574   1.380       .  A
C573       C3413   1.488       .  S
C574        H576   1.082       .  S
N577        N578   1.322       .  A
N577        C581   1.344       .  A
N577       Cu585   2.066       .  S
N578        C579   1.346       .  A
N578       Cu584   2.081       .  S
C579        C580   1.385       .  A
C579        H582   1.081       .  S
C580        C581   1.381       .  A
C580       C3357   1.484       .  S
C581        H583   1.082       .  S
Cu584       N587   2.081       .  S
Cu585       N595   2.066       .  S
Cu586       N588   2.074       .  S
Cu586       N594   2.074       .  S
N587        N588   1.322       .  A
N587        C591   1.345       .  A
N588        C589   1.346       .  A
C589        C590   1.384       .  A
C589        H592   1.082       .  S
C590        C591   1.385       .  A
C590       C3385   1.490       .  S
C591        H593   1.081       .  S
N594        N595   1.322       .  A
N594        C598   1.344       .  A
N595        C596   1.345       .  A
C596        C597   1.380       .  A
C596        H599   1.082       .  S
C597        C598   1.382       .  A
C597       C3329   1.478       .  S
C598        H600   1.082       .  S
N601        N602   1.322       .  A
N601        C605   1.348       .  A
N601       Cu609   2.082       .  S
N602        C603   1.342       .  A
N602       Cu608   2.066       .  S
C603        C604   1.382       .  A
C603        H606   1.081       .  S
C604        C605   1.387       .  A
C604       C3392   1.488       .  S
C605        H607   1.081       .  S
Cu608       N611   2.066       .  S
Cu609       N619   2.082       .  S
Cu610       N612   2.076       .  S
Cu610       N618   2.076       .  S
N611        N612   1.322       .  A
N611        C615   1.345       .  A
N612        C613   1.345       .  A
C613        C614   1.383       .  A
C613        H616   1.081       .  S
C614        C615   1.381       .  A
C614       C3301   1.482       .  S
C615        H617   1.081       .  S
N618        N619   1.323       .  A
N618        C622   1.345       .  A
N619        C620   1.346       .  A
C620        C621   1.386       .  A
C620        H623   1.082       .  S
C621        C622   1.385       .  A
C621       C3273   1.492       .  S
C622        H624   1.082       .  S
N625        N626   1.320       .  A
N625        C629   1.347       .  A
N625       Cu633   2.075       .  S
N626        C627   1.340       .  A
N626       Cu632   2.053       .  S
C627        C628   1.381       .  A
C627        H630   1.081       .  S
C628        C629   1.388       .  A
C628       C3245   1.487       .  S
C629        H631   1.082       .  S
Cu632       N635   2.053       .  S
Cu633       N643   2.077       .  S
Cu634       N636   2.087       .  S
Cu634       N642   2.088       .  S
N635        N636   1.321       .  A
N635        C639   1.342       .  A
N636        C637   1.348       .  A
C637        C638   1.387       .  A
C637        H640   1.081       .  S
C638        C639   1.378       .  A
C638       C3364   1.483       .  S
C639        H641   1.081       .  S
N642        N643   1.324       .  A
N642        C646   1.346       .  A
N643        C644   1.345       .  A
C644        C645   1.384       .  A
C644        H647   1.082       .  S
C645        C646   1.387       .  A
C645       C3217   1.492       .  S
C646        H648   1.082       .  S
N649        N650   1.323       .  A
N649        C653   1.347       .  A
N649       Cu657   2.077       .  S
N650        C651   1.345       .  A
N650       Cu656   2.081       .  S
C651        C652   1.382       .  A
C651        H654   1.081       .  S
C652        C653   1.383       .  A
C652       C3308   1.484       .  S
C653        H655   1.082       .  S
Cu656       N659   2.082       .  S
Cu657       N667   2.077       .  S
Cu658       N660   2.083       .  S
Cu658       N666   2.082       .  S
N659        N660   1.322       .  A
N659        C663   1.348       .  A
N660        C661   1.346       .  A
C661        C662   1.386       .  A
C661        H664   1.081       .  S
C662        C663   1.387       .  A
C662       C3189   1.494       .  S
C663        H665   1.081       .  S
N666        N667   1.323       .  A
N666        C670   1.347       .  A
N667        C668   1.346       .  A
C668        C669   1.383       .  A
C668        H671   1.082       .  S
C669        C670   1.384       .  A
C669       C3168   1.487       .  S
C670        H672   1.081       .  S
N673        N674   1.323       .  A
N673        C677   1.347       .  A
N673       Cu681   2.087       .  S
N674        C675   1.347       .  A
N674       Cu680   2.087       .  S
C675        C676   1.387       .  A
C675        H678   1.081       .  S
C676        C677   1.386       .  A
C676       C3196   1.496       .  S
C677        H679   1.081       .  S
Cu680       N683   2.086       .  S
Cu681       N691   2.086       .  S
Cu682       N684   2.068       .  S
Cu682       N690   2.069       .  S
N683        N684   1.323       .  A
N683        C687   1.347       .  A
N684        C685   1.344       .  A
C685        C686   1.382       .  A
C685        H688   1.082       .  S
C686        C687   1.385       .  A
C686       C3133   1.486       .  S
C687        H689   1.081       .  S
N690        N691   1.322       .  A
N690        C694   1.345       .  A
N691        C692   1.347       .  A
C692        C693   1.386       .  A
C692        H695   1.082       .  S
C693        C694   1.382       .  A
C693       C3105   1.488       .  S
C694        H696   1.082       .  S
N697        N698   1.323       .  A
N697        C701   1.347       .  A
N697       Cu705   2.081       .  S
N698        C699   1.344       .  A
N698       Cu704   2.069       .  S
C699        C700   1.381       .  A
C699        H702   1.081       .  S
C700        C701   1.384       .  A
C700       C3140   1.484       .  S
C701        H703   1.081       .  S
Cu704       N707   2.068       .  S
Cu705       N715   2.081       .  S
Cu706       N708   2.063       .  S
Cu706       N714   2.063       .  S
N707        N708   1.321       .  A
N707        C711   1.344       .  A
N708        C709   1.344       .  A
C709        C710   1.381       .  A
C709        H712   1.082       .  S
C710        C711   1.382       .  A
C710       C3252   1.479       .  S
C711        H713   1.081       .  S
N714        N715   1.323       .  A
N714        C718   1.343       .  A
N715        C716   1.346       .  A
C716        C717   1.385       .  A
C716        H719   1.082       .  S
C717        C718   1.381       .  A
C717       C3077   1.485       .  S
C718        H720   1.082       .  S
N721        N722   1.323       .  A
N721        C725   1.347       .  A
N721       Cu729   2.081       .  S
N722        C723   1.345       .  A
N722       Cu728   2.082       .  S
C723        C724   1.383       .  A
C723        H726   1.081       .  S
C724        C725   1.385       .  A
C724       C3021   1.487       .  S
C725        H727   1.081       .  S
Cu728       N731   2.082       .  S
Cu729       N739   2.081       .  S
Cu730       N732   2.071       .  S
Cu730       N738   2.070       .  S
N731        N732   1.322       .  A
N731        C735   1.347       .  A
N732        C733   1.345       .  A
C733        C734   1.383       .  A
C733        H736   1.081       .  S
C734        C735   1.386       .  A
C734       C3056   1.489       .  S
C735        H737   1.081       .  S
N738        N739   1.323       .  A
N738        C742   1.345       .  A
N739        C740   1.346       .  A
C740        C741   1.384       .  A
C740        H743   1.081       .  S
C741        C742   1.382       .  A
C741       C2993   1.485       .  S
C742        H744   1.081       .  S
N745        N746   1.323       .  A
N745        C749   1.349       .  A
N745       Cu753   2.084       .  S
N746        C747   1.343       .  A
N746       Cu752   2.072       .  S
C747        C748   1.382       .  A
C747        H750   1.082       .  S
C748        C749   1.386       .  A
C748       C3049   1.486       .  S
C749        H751   1.082       .  S
Cu752       N755   2.071       .  S
Cu753       N763   2.085       .  S
Cu754       N756   2.077       .  S
Cu754       N762   2.078       .  S
N755        N756   1.321       .  A
N755        C759   1.345       .  A
N756        C757   1.346       .  A
C757        C758   1.385       .  A
C757        H760   1.081       .  S
C758        C759   1.384       .  A
C758       C2965   1.488       .  S
C759        H761   1.081       .  S
N762        N763   1.324       .  A
N762        C766   1.345       .  A
N763        C764   1.346       .  A
C764        C765   1.385       .  A
C764        H767   1.082       .  S
C765        C766   1.384       .  A
C765       C2937   1.490       .  S
C766        H768   1.082       .  S
N769        N770   1.322       .  A
N769        C773   1.347       .  A
N769       Cu777   2.083       .  S
N770        C771   1.344       .  A
N770       Cu776   2.068       .  S
C771        C772   1.382       .  A
C771        H774   1.081       .  S
C772        C773   1.387       .  A
C772       C2909   1.489       .  S
C773        H775   1.081       .  S
Cu776       N779   2.067       .  S
Cu777       N787   2.083       .  S
Cu778       N780   2.075       .  S
Cu778       N786   2.075       .  S
N779        N780   1.321       .  A
N779        C783   1.344       .  A
N780        C781   1.346       .  A
C781        C782   1.386       .  A
C781        H784   1.082       .  S
C782        C783   1.384       .  A
C782       C3028   1.489       .  S
C783        H785   1.082       .  S
N786        N787   1.322       .  A
N786        C790   1.344       .  A
N787        C788   1.347       .  A
C788        C789   1.387       .  A
C788        H791   1.082       .  S
C789        C790   1.385       .  A
C789       C2881   1.494       .  S
C790        H792   1.082       .  S
N793        N794   1.322       .  A
N793        C797   1.345       .  A
N793       Cu801   2.072       .  S
N794        C795   1.344       .  A
N794       Cu800   2.069       .  S
C795        C796   1.382       .  A
C795        H798   1.081       .  S
C796        C797   1.383       .  A
C796       C2972   1.483       .  S
C797        H799   1.081       .  S
Cu800       N803   2.068       .  S
Cu801       N811   2.072       .  S
Cu802       N804   2.072       .  S
Cu802       N810   2.072       .  S
N803        N804   1.321       .  A
N803        C807   1.342       .  A
N804        C805   1.346       .  A
C805        C806   1.386       .  A
C805        H808   1.082       .  S
C806        C807   1.384       .  A
C806       C2853   1.489       .  S
C807        H809   1.081       .  S
N810        N811   1.323       .  A
N810        C814   1.343       .  A
N811        C812   1.345       .  A
C812        C813   1.383       .  A
C812        H815   1.082       .  S
C813        C814   1.383       .  A
C813       C2825   1.485       .  S
C814        H816   1.082       .  S
N817        N818   1.321       .  A
N817        C821   1.345       .  A
N817       Cu825   2.069       .  S
N818        C819   1.342       .  A
N818       Cu824   2.065       .  S
C819        C820   1.383       .  A
C819        H822   1.081       .  S
C820        C821   1.384       .  A
C820       C2860   1.485       .  S
C821        H823   1.081       .  S
Cu824       N827   2.065       .  S
Cu825       N835   2.070       .  S
Cu826       N828   2.078       .  S
Cu826       N834   2.078       .  S
N827        N828   1.322       .  A
N827        C831   1.343       .  A
N828        C829   1.347       .  A
C829        C830   1.385       .  A
C829        H832   1.081       .  S
C830        C831   1.381       .  A
C830       C2797   1.484       .  S
C831        H833   1.081       .  S
N834        N835   1.323       .  A
N834        C838   1.345       .  A
N835        C836   1.344       .  A
C836        C837   1.383       .  A
C836        H839   1.082       .  S
C837        C838   1.384       .  A
C837       C2769   1.486       .  S
C838        H840   1.081       .  S
N841        N842   1.321       .  A
N841        C845   1.347       .  A
N841       Cu849   2.084       .  S
N842        C843   1.344       .  A
N842       Cu848   2.071       .  S
C843        C844   1.385       .  A
C843        H846   1.081       .  S
C844        C845   1.389       .  A
C844       C2804   1.495       .  S
C845        H847   1.081       .  S
Cu848       N851   2.071       .  S
Cu849       N859   2.084       .  S
Cu850       N852   2.078       .  S
Cu850       N858   2.079       .  S
N851        N852   1.321       .  A
N851        C855   1.344       .  A
N852        C853   1.347       .  A
C853        C854   1.387       .  A
C853        H856   1.081       .  S
C854        C855   1.384       .  A
C854       C2916   1.490       .  S
C855        H857   1.081       .  S
N858        N859   1.323       .  A
N858        C862   1.344       .  A
N859        C860   1.347       .  A
C860        C861   1.386       .  A
C860        H863   1.082       .  S
C861        C862   1.384       .  A
C861       C2748   1.491       .  S
C862        H864   1.082       .  S
N865        N866   1.321       .  A
N865        C869   1.344       .  A
N865       Cu873   2.075       .  S
N866        C867   1.343       .  A
N866       Cu872   2.072       .  S
C867        C868   1.387       .  A
C867        H870   1.082       .  S
C868        C869   1.387       .  A
C868       C2685   1.495       .  S
C869        H871   1.082       .  S
Cu872       N875   2.073       .  S
Cu873       N883   2.075       .  S
Cu874       N876   2.063       .  S
Cu874       N882   2.063       .  S
N875        N876   1.322       .  A
N875        C879   1.345       .  A
N876        C877   1.344       .  A
C877        C878   1.380       .  A
C877        H880   1.082       .  S
C878        C879   1.383       .  A
C878       C2713   1.480       .  S
C879        H881   1.081       .  S
N882        N883   1.321       .  A
N882        C886   1.342       .  A
N883        C884   1.346       .  A
C884        C885   1.386       .  A
C884        H887   1.082       .  S
C885        C886   1.383       .  A
C885       C2664   1.488       .  S
C886        H888   1.082       .  S
N889        N890   1.321       .  A
N889        C893   1.345       .  A
N889       Cu897   2.070       .  S
N890        C891   1.343       .  A
N890       Cu896   2.058       .  S
C891        C892   1.379       .  A
C891        H894   1.081       .  S
C892        C893   1.382       .  A
C892       C2720   1.476       .  S
C893        H895   1.081       .  S
Cu896       N899   2.058       .  S
Cu897       N907   2.070       .  S
Cu898       N900   2.073       .  S
Cu898       N906   2.074       .  S
N899        N900   1.322       .  A
N899        C903   1.342       .  A
N900        C901   1.344       .  A
C901        C902   1.384       .  A
C901        H904   1.082       .  S
C902        C903   1.380       .  A
C902       C2629   1.481       .  S
C903        H905   1.082       .  S
N906        N907   1.322       .  A
N906        C910   1.345       .  A
N907        C908   1.343       .  A
C908        C909   1.384       .  A
C908        H911   1.082       .  S
C909        C910   1.385       .  A
C909       C2601   1.488       .  S
C910        H912   1.082       .  S
N913        N914   1.322       .  A
N913        C917   1.346       .  A
N913       Cu921   2.079       .  S
N914        C915   1.345       .  A
N914       Cu920   2.072       .  S
C915        C916   1.384       .  A
C915        H918   1.081       .  S
C916        C917   1.385       .  A
C916       C2573   1.489       .  S
C917        H919   1.081       .  S
Cu920       N923   2.072       .  S
Cu921       N931   2.079       .  S
Cu922       N924   2.069       .  S
Cu922       N930   2.069       .  S
N923        N924   1.321       .  A
N923        C927   1.343       .  A
N924        C925   1.345       .  A
C925        C926   1.386       .  A
C925        H928   1.082       .  S
C926        C927   1.386       .  A
C926       C2692   1.491       .  S
C927        H929   1.082       .  S
N930        N931   1.322       .  A
N930        C934   1.344       .  A
N931        C932   1.346       .  A
C932        C933   1.385       .  A
C932        H935   1.082       .  S
C933        C934   1.383       .  A
C933       C2545   1.488       .  S
C934        H936   1.082       .  S
N937        N938   1.321       .  A
N937        C941   1.343       .  A
N937       Cu945   2.058       .  S
N938        C939   1.342       .  A
N938       Cu944   2.065       .  S
C939        C940   1.383       .  A
C939        H942   1.081       .  S
C940        C941   1.382       .  A
C940       C2636   1.481       .  S
C941        H943   1.081       .  S
Cu944       N947   2.065       .  S
Cu945       N955   2.058       .  S
Cu946       N948   2.065       .  S
Cu946       N954   2.066       .  S
N947        N948   1.321       .  A
N947        C951   1.343       .  A
N948        C949   1.344       .  A
C949        C950   1.382       .  A
C949        H952   1.081       .  S
C950        C951   1.383       .  A
C950       C2517   1.482       .  S
C951        H953   1.081       .  S
N954        N955   1.321       .  A
N954        C958   1.342       .  A
N955        C956   1.343       .  A
C956        C957   1.383       .  A
C956        H959   1.082       .  S
C957        C958   1.385       .  A
C957       C2496   1.485       .  S
C958        H960   1.082       .  S
N961        N962   1.322       .  A
N961        C965   1.345       .  A
N961       Cu969   2.077       .  S
N962        C963   1.342       .  A
N962       Cu968   2.062       .  S
C963        C964   1.382       .  A
C963        H966   1.081       .  S
C964        C965   1.385       .  A
C964       C2524   1.485       .  S
C965        H967   1.081       .  S
Cu968       N971   2.061       .  S
Cu969       N979   2.077       .  S
Cu970       N972   2.073       .  S
Cu970       N978   2.073       .  S
N971        N972   1.321       .  A
N971        C975   1.343       .  A
N972        C973   1.344       .  A
C973        C974   1.385       .  A
C973        H976   1.081       .  S
C974        C975   1.382       .  A
C974       C2461   1.485       .  S
C975        H977   1.081       .  S
N978        N979   1.322       .  A
N978        C982   1.344       .  A
N979        C980   1.346       .  A
C980        C981   1.386       .  A
C980        H983   1.082       .  S
C981        C982   1.385       .  A
C981       C2433   1.492       .  S
C982        H984   1.082       .  S
N985        N986   1.322       .  A
N985        C989   1.345       .  A
N985       Cu993   2.075       .  S
N986        C987   1.345       .  A
N986       Cu992   2.076       .  S
C987        C988   1.385       .  A
C987        H990   1.081       .  S
C988        C989   1.384       .  A
C988       C2468   1.489       .  S
C989        H991   1.081       .  S
Cu992       N995   2.076       .  S
Cu993      N1003   2.075       .  S
Cu994       N996   2.079       .  S
Cu994      N1002   2.079       .  S
N995        N996   1.323       .  A
N995        C999   1.346       .  A
N996        C997   1.345       .  A
C997        C998   1.384       .  A
C997       H1000   1.081       .  S
C998        C999   1.384       .  A
C998       C2580   1.488       .  S
C999       H1001   1.081       .  S
N1002      N1003   1.322       .  A
N1002      C1006   1.346       .  A
N1003      C1004   1.346       .  A
C1004      C1005   1.384       .  A
C1004      H1007   1.082       .  S
C1005      C1006   1.384       .  A
C1005      C2405   1.488       .  S
C1006      H1008   1.082       .  S
N1009      N1010   1.321       .  A
N1009      C1013   1.349       .  A
N1009     Cu1017   2.086       .  S
N1010      C1011   1.342       .  A
N1010     Cu1016   2.062       .  S
C1011      C1012   1.382       .  A
C1011      H1014   1.081       .  S
C1012      C1013   1.389       .  A
C1012      C2356   1.491       .  S
C1013      H1015   1.081       .  S
Cu1016     N1019   2.062       .  S
Cu1017     N1027   2.087       .  S
Cu1018     N1020   2.081       .  S
Cu1018     N1026   2.082       .  S
N1019      N1020   1.321       .  A
N1019      C1023   1.342       .  A
N1020      C1021   1.348       .  A
C1021      C1022   1.388       .  A
C1021      H1024   1.082       .  S
C1022      C1023   1.382       .  A
C1022      C2377   1.489       .  S
C1023      H1025   1.082       .  S
N1026      N1027   1.324       .  A
N1026      C1030   1.345       .  A
N1027      C1028   1.346       .  A
C1028      C1029   1.387       .  A
C1028      H1031   1.082       .  S
C1029      C1030   1.386       .  A
C1029      C2321   1.496       .  S
C1030      H1032   1.081       .  S
N1033      N1034   1.322       .  A
N1033      C1037   1.347       .  A
N1033     Cu1041   2.077       .  S
N1034      C1035   1.342       .  A
N1034     Cu1040   2.066       .  S
C1035      C1036   1.381       .  A
C1035      H1038   1.081       .  S
C1036      C1037   1.386       .  A
C1036      C2293   1.486       .  S
C1037      H1039   1.081       .  S
Cu1040     N1043   2.066       .  S
Cu1041     N1051   2.077       .  S
Cu1042     N1044   2.065       .  S
Cu1042     N1050   2.066       .  S
N1043      N1044   1.320       .  A
N1043      C1047   1.344       .  A
N1044      C1045   1.344       .  A
C1045      C1046   1.384       .  A
C1045      H1048   1.081       .  S
C1046      C1047   1.383       .  A
C1046      C2349   1.485       .  S
C1047      H1049   1.081       .  S
N1050      N1051   1.323       .  A
N1050      C1054   1.343       .  A
N1051      C1052   1.345       .  A
C1052      C1053   1.385       .  A
C1052      H1055   1.082       .  S
C1053      C1054   1.382       .  A
C1053      C2272   1.485       .  S
C1054      H1056   1.082       .  S
N1057      N1058   1.321       .  A
N1057      C1061   1.345       .  A
N1057     Cu1065   2.075       .  S
N1058      C1059   1.344       .  A
N1058     Cu1064   2.072       .  S
C1059      C1060   1.387       .  A
C1059      H1062   1.082       .  S
C1060      C1061   1.388       .  A
C1060      C2237   1.495       .  S
C1061      H1063   1.082       .  S
Cu1064     N1067   2.072       .  S
Cu1065     N1075   2.076       .  S
Cu1066     N1068   2.082       .  S
Cu1066     N1074   2.082       .  S
N1067      N1068   1.322       .  A
N1067      C1071   1.344       .  A
N1068      C1069   1.347       .  A
C1069      C1070   1.387       .  A
C1069      H1072   1.082       .  S
C1070      C1071   1.384       .  A
C1070      C2300   1.490       .  S
C1071      H1073   1.082       .  S
N1074      N1075   1.323       .  A
N1074      C1078   1.345       .  A
N1075      C1076   1.346       .  A
C1076      C1077   1.385       .  A
C1076      H1079   1.082       .  S
C1077      C1078   1.385       .  A
C1077      C2209   1.490       .  S
C1078      H1080   1.082       .  S
N1081      N1082   1.322       .  A
N1081      C1085   1.345       .  A
N1081     Cu1089   2.067       .  S
N1082      C1083   1.344       .  A
N1082     Cu1088   2.074       .  S
C1083      C1084   1.383       .  A
C1083      H1086   1.081       .  S
C1084      C1085   1.381       .  A
C1084      C2188   1.480       .  S
C1085      H1087   1.081       .  S
Cu1088     N1091   2.074       .  S
Cu1089     N1099   2.067       .  S
Cu1090     N1092   2.072       .  S
Cu1090     N1098   2.072       .  S
N1091      N1092   1.321       .  A
N1091      C1095   1.344       .  A
N1092      C1093   1.344       .  A
C1093      C1094   1.387       .  A
C1093      H1096   1.081       .  S
C1094      C1095   1.388       .  A
C1094      C2244   1.496       .  S
C1095      H1097   1.082       .  S
N1098      N1099   1.322       .  A
N1098      C1102   1.345       .  A
N1099      C1100   1.344       .  A
C1100      C1101   1.382       .  A
C1100      H1103   1.081       .  S
C1101      C1102   1.384       .  A
C1101      C2153   1.485       .  S
C1102      H1104   1.082       .  S
N1105      N1106   1.322       .  A
N1105      C1109   1.345       .  A
N1105     Cu1113   2.070       .  S
N1106      C1107   1.344       .  A
N1106     Cu1112   2.072       .  S
C1107      C1108   1.384       .  A
C1107      H1110   1.081       .  S
C1108      C1109   1.384       .  A
C1108      C2384   1.487       .  S
C1109      H1111   1.081       .  S
Cu1112     N1115   2.072       .  S
Cu1113     N1123   2.070       .  S
Cu1114     N1116   2.075       .  S
Cu1114     N1122   2.075       .  S
N1115      N1116   1.321       .  A
N1115      C1119   1.345       .  A
N1116      C1117   1.345       .  A
C1117      C1118   1.385       .  A
C1117      H1120   1.081       .  S
C1118      C1119   1.384       .  A
C1118      C2132   1.488       .  S
C1119      H1121   1.081       .  S
N1122      N1123   1.323       .  A
N1122      C1126   1.344       .  A
N1123      C1124   1.344       .  A
C1124      C1125   1.383       .  A
C1124      H1127   1.082       .  S
C1125      C1126   1.384       .  A
C1125      C2104   1.485       .  S
C1126      H1128   1.082       .  S
N1129      N1130   1.321       .  A
N1129      C1133   1.348       .  A
N1129     Cu1137   2.081       .  S
N1130      C1131   1.341       .  A
N1130     Cu1136   2.054       .  S
C1131      C1132   1.380       .  A
C1131      H1134   1.081       .  S
C1132      C1133   1.387       .  A
C1132      C2125   1.485       .  S
C1133      H1135   1.081       .  S
Cu1136     N1139   2.054       .  S
Cu1137     N1147   2.082       .  S
Cu1138     N1140   2.085       .  S
Cu1138     N1146   2.087       .  S
N1139      N1140   1.321       .  A
N1139      C1143   1.340       .  A
N1140      C1141   1.349       .  A
C1141      C1142   1.388       .  A
C1141      H1144   1.081       .  S
C1142      C1143   1.379       .  A
C1142      C2181   1.484       .  S
C1143      H1145   1.082       .  S
N1146      N1147   1.324       .  A
N1146      C1150   1.346       .  A
N1147      C1148   1.346       .  A
C1148      C1149   1.385       .  A
C1148      H1151   1.082       .  S
C1149      C1150   1.386       .  A
C1149      C2069   1.494       .  S
C1150      H1152   1.082       .  S
N1153      N1154   1.322       .  A
N1153      C1157   1.347       .  A
N1153     Cu1161   2.079       .  S
N1154      C1155   1.345       .  A
N1154     Cu1160   2.080       .  S
C1155      C1156   1.386       .  A
C1155      H1158   1.081       .  S
C1156      C1157   1.387       .  A
C1156      C2552   1.494       .  S
C1157      H1159   1.082       .  S
Cu1160     N1163   2.080       .  S
Cu1161     N1171   2.079       .  S
Cu1162     N1164   2.081       .  S
Cu1162     N1170   2.081       .  S
N1163      N1164   1.321       .  A
N1163      C1167   1.345       .  A
N1164      C1165   1.347       .  A
C1165      C1166   1.389       .  A
C1165      H1168   1.082       .  S
C1166      C1167   1.387       .  A
C1166      C2216   1.496       .  S
C1167      H1169   1.082       .  S
N1170      N1171   1.323       .  A
N1170      C1174   1.344       .  A
N1171      C1172   1.347       .  A
C1172      C1173   1.386       .  A
C1172      H1175   1.082       .  S
C1173      C1174   1.385       .  A
C1173      C2041   1.493       .  S
C1174      H1176   1.082       .  S
N1177      N1178   1.322       .  A
N1177      C1181   1.347       .  A
N1177     Cu1185   2.078       .  S
N1178      C1179   1.345       .  A
N1178     Cu1184   2.080       .  S
C1179      C1180   1.385       .  A
C1179      H1182   1.082       .  S
C1180      C1181   1.385       .  A
C1180      C2328   1.490       .  S
C1181      H1183   1.082       .  S
Cu1184     N1187   2.081       .  S
Cu1185     N1195   2.078       .  S
Cu1186     N1188   2.079       .  S
Cu1186     N1194   2.079       .  S
N1187      N1188   1.322       .  A
N1187      C1191   1.346       .  A
N1188      C1189   1.346       .  A
C1189      C1190   1.387       .  A
C1189      H1192   1.082       .  S
C1190      C1191   1.387       .  A
C1190      C2888   1.497       .  S
C1191      H1193   1.082       .  S
N1194      N1195   1.322       .  A
N1194      C1198   1.346       .  A
N1195      C1196   1.345       .  A
C1196      C1197   1.386       .  A
C1196      H1199   1.082       .  S
C1197      C1198   1.387       .  A
C1197      C2013   1.495       .  S
C1198      H1200   1.082       .  S
N1201      N1202   1.322       .  A
N1201      C1205   1.346       .  A
N1201     Cu1209   2.078       .  S
N1202      C1203   1.345       .  A
N1202     Cu1208   2.074       .  S
C1203      C1204   1.385       .  A
C1203      H1206   1.082       .  S
C1204      C1205   1.386       .  A
C1204      C2076   1.491       .  S
C1205      H1207   1.082       .  S
Cu1208     N1211   2.073       .  S
Cu1209     N1219   2.078       .  S
Cu1210     N1212   2.083       .  S
Cu1210     N1218   2.083       .  S
N1211      N1212   1.322       .  A
N1211      C1215   1.344       .  A
N1212      C1213   1.348       .  A
C1213      C1214   1.388       .  A
C1213      H1216   1.082       .  S
C1214      C1215   1.385       .  A
C1214      C3224   1.494       .  S
C1215      H1217   1.082       .  S
N1218      N1219   1.323       .  A
N1218      C1222   1.345       .  A
N1219      C1220   1.346       .  A
C1220      C1221   1.384       .  A
C1220      H1223   1.082       .  S
C1221      C1222   1.385       .  A
C1221      C1985   1.490       .  S
C1222      H1224   1.082       .  S
N1225      N1226   1.324       .  A
N1225      C1229   1.348       .  A
N1225     Cu1233   2.086       .  S
N1226      C1227   1.345       .  A
N1226     Cu1232   2.080       .  S
C1227      C1228   1.384       .  A
C1227      H1230   1.082       .  S
C1228      C1229   1.386       .  A
C1228      C2440   1.491       .  S
C1229      H1231   1.082       .  S
Cu1232     N1235   2.080       .  S
Cu1233     N1243   2.086       .  S
Cu1234     N1236   2.065       .  S
Cu1234     N1242   2.066       .  S
N1235      N1236   1.321       .  A
N1235      C1239   1.346       .  A
N1236      C1237   1.343       .  A
C1237      C1238   1.384       .  A
C1237      H1240   1.082       .  S
C1238      C1239   1.388       .  A
C1238      C4281   1.491       .  S
C1239      H1241   1.082       .  S
N1242      N1243   1.322       .  A
N1242      C1246   1.343       .  A
N1243      C1244   1.347       .  A
C1244      C1245   1.388       .  A
C1244      H1247   1.082       .  S
C1245      C1246   1.383       .  A
C1245      C1957   1.491       .  S
C1246      H1248   1.082       .  S
N1249      N1250   1.322       .  A
N1249      C1253   1.346       .  A
N1249     Cu1257   2.072       .  S
N1250      C1251   1.345       .  A
N1250     Cu1256   2.080       .  S
C1251      C1252   1.386       .  A
C1251      H1254   1.082       .  S
C1252      C1253   1.384       .  A
C1252      C2776   1.490       .  S
C1253      H1255   1.082       .  S
Cu1256     N1259   2.080       .  S
Cu1257     N1267   2.072       .  S
Cu1258     N1260   2.075       .  S
Cu1258     N1266   2.075       .  S
N1259      N1260   1.322       .  A
N1259      C1263   1.347       .  A
N1260      C1261   1.344       .  A
C1261      C1262   1.384       .  A
C1261      H1264   1.082       .  S
C1262      C1263   1.386       .  A
C1262      C3616   1.491       .  S
C1263      H1265   1.081       .  S
N1266      N1267   1.321       .  A
N1266      C1270   1.346       .  A
N1267      C1268   1.343       .  A
C1268      C1269   1.386       .  A
C1268      H1271   1.081       .  S
C1269      C1270   1.388       .  A
C1269      C1929   1.494       .  S
C1270      H1272   1.082       .  S
N1273      N1274   1.323       .  A
N1273      C1277   1.350       .  A
N1273     Cu1281   2.098       .  S
N1274      C1275   1.343       .  A
N1274     Cu1280   2.070       .  S
C1275      C1276   1.382       .  A
C1275      H1278   1.082       .  S
C1276      C1277   1.390       .  A
C1276      C3112   1.495       .  S
C1277      H1279   1.082       .  S
Cu1280     N1283   2.070       .  S
Cu1281     N1291   2.098       .  S
Cu1282     N1284   2.070       .  S
Cu1282     N1290   2.071       .  S
N1283      N1284   1.320       .  A
N1283      C1287   1.345       .  A
N1284      C1285   1.344       .  A
C1285      C1286   1.387       .  A
C1285      H1288   1.082       .  S
C1286      C1287   1.387       .  A
C1286      C3945   1.493       .  S
C1287      H1289   1.081       .  S
N1290      N1291   1.323       .  A
N1290      C1294   1.344       .  A
N1291      C1292   1.350       .  A
C1292      C1293   1.389       .  A
C1292      H1295   1.082       .  S
C1293      C1294   1.382       .  A
C1293      C1908   1.493       .  S
C1294      H1296   1.082       .  S
N1297      N1298   1.321       .  A
N1297      C1301   1.344       .  A
N1297     Cu1305   2.066       .  S
N1298      C1299   1.344       .  A
N1298     Cu1304   2.071       .  S
C1299      C1300   1.385       .  A
C1299      H1302   1.082       .  S
C1300      C1301   1.383       .  A
C1300      C4008   1.486       .  S
C1301      H1303   1.082       .  S
Cu1304     N1307   2.072       .  S
Cu1305     N1315   2.066       .  S
Cu1306     N1308   2.081       .  S
Cu1306     N1314   2.081       .  S
N1307      N1308   1.322       .  A
N1307      C1311   1.344       .  A
N1308      C1309   1.346   1_455  A
C1309      C1310   1.388       .  A
C1309      H1312   1.082       .  S
C1310      C1311   1.384   1_655  A
C1310      C4533   1.492       .  S
C1311      H1313   1.081       .  S
N1314      N1315   1.323       .  A
N1314      C1318   1.346       .  A
N1315      C1316   1.344       .  A
C1316      C1317   1.381       .  A
C1316      H1319   1.082       .  S
C1317      C1318   1.384       .  A
C1317      C1880   1.483       .  S
C1318      H1320   1.082       .  S
N1321      N1322   1.321       .  A
N1321      C1325   1.345       .  A
N1321     Cu1329   2.070       .  S
N1322      C1323   1.344       .  A
N1322     Cu1328   2.073       .  S
C1323      C1324   1.384       .  A
C1323      H1326   1.082       .  S
C1324      C1325   1.384       .  A
C1324      C3084   1.487       .  S
C1325      H1327   1.082       .  S
Cu1328     N1331   2.074       .  S
Cu1329     N1339   2.070       .  S
Cu1330     N1332   2.079       .  S
Cu1330     N1338   2.079       .  S
N1331      N1332   1.322       .  A
N1331      C1335   1.345       .  A
N1332      C1333   1.347   1_455  A
C1333      C1334   1.385       .  A
C1333      H1336   1.082       .  S
C1334      C1335   1.383   1_655  A
C1334      C4232   1.487       .  S
C1335      H1337   1.082       .  S
N1338      N1339   1.323       .  A
N1338      C1342   1.346       .  A
N1339      C1340   1.343       .  A
C1340      C1341   1.383       .  A
C1340      H1343   1.082       .  S
C1341      C1342   1.385       .  A
C1341      C1845   1.487       .  S
C1342      H1344   1.082       .  S
N1345      N1346   1.321       .  A
N1345      C1349   1.346       .  A
N1345     Cu1353   2.079       .  S
N1346      C1347   1.345       .  A
N1346     Cu1352   2.072       .  S
C1347      C1348   1.386       .  A
C1347      H1350   1.082       .  S
C1348      C1349   1.387       .  A
C1348      C2412   1.493       .  S
C1349      H1351   1.082       .  S
Cu1352     N1355   2.072   1_545  S
Cu1353     N1363   2.080       .  S
Cu1354     N1356   2.081       .  S
Cu1354     N1362   2.081       .  S
N1355      N1356   1.323       .  A
N1355      C1359   1.344       .  A
N1356      C1357   1.347       .  A
C1357      C1358   1.384       .  A
C1357      H1360   1.082       .  S
C1358      C1359   1.380       .  A
C1358      C3560   1.482       .  S
C1359      H1361   1.082       .  S
N1362      N1363   1.323   1_565  A
N1362      C1366   1.347       .  A
N1363      C1364   1.344       .  A
C1364      C1365   1.385       .  A
C1364      H1367   1.082       .  S
C1365      C1366   1.387   1_545  A
C1365      C1817   1.493   1_655  S
C1366      H1368   1.082       .  S
N1369      N1370   1.322       .  A
N1369      C1373   1.348       .  A
N1369     Cu1377   2.084       .  S
N1370      C1371   1.344       .  A
N1370     Cu1376   2.075   1_545  S
C1371      C1372   1.384       .  A
C1371      H1374   1.082       .  S
C1372      C1373   1.387       .  A
C1372      C4344   1.491       .  S
C1373      H1375   1.082       .  S
Cu1376     N1379   2.075       .  S
Cu1377     N1387   2.084       .  S
Cu1378     N1380   2.084       .  S
Cu1378     N1386   2.085       .  S
N1379      N1380   1.322       .  A
N1379      C1383   1.346       .  A
N1380      C1381   1.347       .  A
C1381      C1382   1.386       .  A
C1381      H1384   1.082       .  S
C1382      C1383   1.384       .  A
C1382      C4456   1.490       .  S
C1383      H1385   1.082       .  S
N1386      N1387   1.324   1_565  A
N1386      C1390   1.347       .  A
N1387      C1388   1.346       .  A
C1388      C1389   1.385   1_545  A
C1388      H1391   1.082       .  S
C1389      C1390   1.386       .  A
C1389      C1789   1.492   1_655  S
C1390      H1392   1.082       .  S
N1393      N1394   1.321       .  A
N1393      C1397   1.348       .  A
N1393     Cu1401   2.085       .  S
N1394      C1395   1.343       .  A
N1394     Cu1400   2.065       .  S
C1395      C1396   1.383       .  A
C1395      H1398   1.082       .  S
C1396      C1397   1.389       .  A
C1396      C2741   1.493       .  S
C1397      H1399   1.082       .  S
Cu1400     N1403   2.065   1_554  S
Cu1401     N1411   2.085       .  S
Cu1402     N1404   2.070       .  S
Cu1402     N1410   2.071       .  S
N1403      N1404   1.321       .  A
N1403      C1407   1.343       .  A
N1404      C1405   1.345       .  A
C1405      C1406   1.384       .  A
C1405      H1408   1.082       .  S
C1406      C1407   1.383       .  A
C1406      C3896   1.485       .  S
C1407      H1409   1.082       .  S
N1410      N1411   1.323   1_556  A
N1410      C1414   1.345       .  A
N1411      C1412   1.345       .  A
C1412      C1413   1.386       .  A
C1412      H1415   1.083       .  S
C1413      C1414   1.383   1_554  A
C1413      C1768   1.489       .  S
C1414      H1416   1.082       .  S
N1417      N1418   1.322       .  A
N1417      C1421   1.346       .  A
N1417     Cu1425   2.075       .  S
N1418      C1419   1.343       .  A
N1418     Cu1424   2.072   1_556  S
C1419      C1420   1.384       .  A
C1419      H1422   1.082       .  S
C1420      C1421   1.386       .  A
C1420      C4680   1.489       .  S
C1421      H1423   1.082       .  S
Cu1424     N1427   2.072       .  S
Cu1425     N1435   2.076   1_556  S
Cu1426     N1428   2.073       .  S
Cu1426     N1434   2.073       .  S
N1427      N1428   1.322       .  A
N1427      C1431   1.345       .  A
N1428      C1429   1.345       .  A
C1429      C1430   1.384       .  A
C1429      H1432   1.082       .  S
C1430      C1431   1.384       .  A
C1430      C3665   1.487       .  S
C1431      H1433   1.082       .  S
N1434      N1435   1.323       .  A
N1434      C1438   1.346       .  A
N1435      C1436   1.344   1_554  A
C1436      C1437   1.384   1_556  A
C1436      H1439   1.082       .  S
C1437      C1438   1.383       .  A
C1437      C1733   1.486       .  S
C1438      H1440   1.082       .  S
N1441      N1442   1.322       .  A
N1441      C1445   1.346       .  A
N1441     Cu1449   2.080       .  S
N1442      C1443   1.343       .  A
N1442     Cu1448   2.064       .  S
C1443      C1444   1.382       .  A
C1443      H1446   1.082       .  S
C1444      C1445   1.386       .  A
C1444      C2097   1.487       .  S
C1445      H1447   1.082       .  S
Cu1448     N1451   2.063       .  S
Cu1449     N1459   2.080       .  S
Cu1450     N1452   2.063       .  S
Cu1450     N1458   2.063       .  S
N1451      N1452   1.321       .  A
N1451      C1455   1.343       .  A
N1452      C1453   1.344   1_455  A
C1453      C1454   1.382       .  A
C1453      H1456   1.082       .  S
C1454      C1455   1.382   1_655  A
C1454      C2489   1.480       .  S
C1455      H1457   1.082       .  S
N1458      N1459   1.322       .  A
N1458      C1462   1.341       .  A
N1459      C1460   1.347       .  A
C1460      C1461   1.386       .  A
C1460      H1463   1.082       .  S
C1461      C1462   1.381       .  A
C1461      C1852   1.486       .  S
C1462      H1464   1.082       .  S
N1465      N1466   1.321       .  A
N1465      C1469   1.346       .  A
N1465     Cu1473   2.073       .  S
N1466      C1467   1.343       .  A
N1466     Cu1472   2.063       .  S
C1467      C1468   1.382       .  A
C1467      H1470   1.082       .  S
C1468      C1469   1.384       .  A
C1468      C3000   1.484       .  S
C1469      H1471   1.082       .  S
Cu1472     N1475   2.063       .  S
Cu1473     N1483   2.073       .  S
Cu1474     N1476   2.076       .  S
Cu1474     N1482   2.077       .  S
N1475      N1476   1.322       .  A
N1475      C1479   1.342       .  A
N1476      C1477   1.346   1_455  A
C1477      C1478   1.385       .  A
C1477      H1480   1.082       .  S
C1478      C1479   1.381   1_655  A
C1478      C3476   1.484       .  S
C1479      H1481   1.082       .  S
N1482      N1483   1.322       .  A
N1482      C1486   1.345       .  A
N1483      C1484   1.344       .  A
C1484      C1485   1.385       .  A
C1484      H1487   1.081       .  S
C1485      C1486   1.386       .  A
C1485      C1873   1.491       .  S
C1486      H1488   1.081       .  S
N1489      N1490   1.322       .  A
N1489      C1493   1.346       .  A
N1489     Cu1497   2.072       .  S
N1490      C1491   1.345       .  A
N1490     Cu1496   2.074   1_565  S
C1491      C1492   1.384       .  A
C1491      H1494   1.081       .  S
C1492      C1493   1.383       .  A
C1492      C2832   1.486       .  S
C1493      H1495   1.082       .  S
Cu1496     N1499   2.074       .  S
Cu1497     N1507   2.073       .  S
Cu1498     N1500   2.080       .  S
Cu1498     N1506   2.080       .  S
N1499      N1500   1.323       .  A
N1499      C1503   1.345       .  A
N1500      C1501   1.346       .  A
C1501      C1502   1.386       .  A
C1501      H1504   1.082       .  S
C1502      C1503   1.384       .  A
C1502      C2160   1.490       .  S
C1503      H1505   1.081       .  S
N1506      N1507   1.322   1_545  A
N1506      C1510   1.348       .  A
N1507      C1508   1.343       .  A
C1508      C1509   1.383   1_565  A
C1508      H1511   1.082       .  S
C1509      C1510   1.386       .  A
C1509      C1824   1.489       .  S
C1510      H1512   1.082       .  S
N1513      N1514   1.323       .  A
N1513      C1517   1.346       .  A
N1513     Cu1521   2.085       .  S
N1514      C1515   1.346       .  A
N1514     Cu1520   2.082       .  S
C1515      C1516   1.386       .  A
C1515      H1518   1.082       .  S
C1516      C1517   1.386       .  A
C1516      C3812   1.494       .  S
C1517      H1519   1.082       .  S
Cu1520     N1523   2.081   1_565  S
Cu1521     N1531   2.085       .  S
Cu1522     N1524   2.065       .  S
Cu1522     N1530   2.066   1_545  S
N1523      N1524   1.321       .  A
N1523      C1527   1.346       .  A
N1524      C1525   1.343       .  A
C1525      C1526   1.385       .  A
C1525      H1528   1.081       .  S
C1526      C1527   1.390       .  A
C1526      C3336   1.495       .  S
C1527      H1529   1.081       .  S
N1530      N1531   1.321       .  A
N1530      C1534   1.344   1_565  A
N1531      C1532   1.347       .  A
C1532      C1533   1.388       .  A
C1532      H1535   1.082       .  S
C1533      C1534   1.383   1_565  A
C1533      C1796   1.490       .  S
C1534      H1536   1.082       .  S
N1537      N1538   1.322       .  A
N1537      C1541   1.344       .  A
N1537     Cu1545   2.068       .  S
N1538      C1539   1.345       .  A
N1538     Cu1544   2.076       .  S
C1539      C1540   1.386       .  A
C1539      H1542   1.082       .  S
C1540      C1541   1.384       .  A
C1540      C2265   1.489       .  S
C1541      H1543   1.082       .  S
Cu1544     N1547   2.076   1_554  S
Cu1545     N1555   2.069       .  S
Cu1546     N1548   2.074       .  S
Cu1546     N1554   2.074       .  S
N1547      N1548   1.322       .  A
N1547      C1551   1.345       .  A
N1548      C1549   1.345       .  A
C1549      C1550   1.386       .  A
C1549      H1552   1.081       .  S
C1550      C1551   1.387       .  A
C1550      C3161   1.494       .  S
C1551      H1553   1.082       .  S
N1554      N1555   1.322   1_556  A
N1554      C1558   1.345       .  A
N1555      C1556   1.344       .  A
C1556      C1557   1.383       .  A
C1556      H1559   1.082       .  S
C1557      C1558   1.384   1_554  A
C1557      C1761   1.486       .  S
C1558      H1560   1.081       .  S
N1561      N1562   1.322       .  A
N1561      C1565   1.345       .  A
N1561     Cu1569   2.074       .  S
N1562      C1563   1.345       .  A
N1562     Cu1568   2.070       .  S
C1563      C1564   1.384       .  A
C1563      H1566   1.082       .  S
C1564      C1565   1.385       .  A
C1564      C2657   1.487       .  S
C1565      H1567   1.082       .  S
Cu1568     N1571   2.070   1_554  S
Cu1569     N1579   2.075       .  S
Cu1570     N1572   2.075       .  S
Cu1570     N1578   2.075       .  S
N1571      N1572   1.322       .  A
N1571      C1575   1.343       .  A
N1572      C1573   1.346       .  A
C1573      C1574   1.384       .  A
C1573      H1576   1.082       .  S
C1574      C1575   1.382       .  A
C1574      C4148   1.484       .  S
C1575      H1577   1.082       .  S
N1578      N1579   1.322   1_556  A
N1578      C1582   1.345       .  A
N1579      C1580   1.345       .  A
C1580      C1581   1.386       .  A
C1580      H1583   1.082       .  S
C1581      C1582   1.386   1_554  A
C1581      C1740   1.492       .  S
C1582      H1584   1.081       .  S
N1585      N1586   1.321       .  A
N1585      C1589   1.347       .  A
N1585     Cu1593   2.080       .  S
N1586      C1587   1.341       .  A
N1586     Cu1592   2.057       .  S
C1587      C1588   1.379       .  A
C1587      H1590   1.082       .  S
C1588      C1589   1.386       .  A
C1588      C3784   1.483       .  S
C1589      H1591   1.082       .  S
Cu1592     N1595   2.057       .  S
Cu1593     N1603   2.081       .  S
Cu1594     N1596   2.080       .  S
Cu1594     N1602   2.081       .  S
N1595      N1596   1.321       .  A
N1595      C1599   1.342       .  A
N1596      C1597   1.347       .  A
C1597      C1598   1.388       .  A
C1597      H1600   1.082       .  S
C1598      C1599   1.382       .  A
C1598      C4624   1.488       .  S
C1599      H1601   1.082       .  S
N1602      N1603   1.324       .  A
N1602      C1606   1.345       .  A
N1603      C1604   1.346       .  A
C1604      C1605   1.384       .  A
C1604      H1607   1.082       .  S
C1605      C1606   1.384       .  A
C1605      C1936   1.490       .  S
C1606      H1608   1.082       .  S
N1609      N1610   1.322       .  A
N1609      C1613   1.345       .  A
N1609     Cu1617   2.074       .  S
N1610      C1611   1.345       .  A
N1610     Cu1616   2.075       .  S
C1611      C1612   1.385       .  A
C1611      H1614   1.082       .  S
C1612      C1613   1.384       .  A
C1612      C4092   1.488       .  S
C1613      H1615   1.082       .  S
Cu1616     N1619   2.075       .  S
Cu1617     N1627   2.074       .  S
Cu1618     N1620   2.075       .  S
Cu1618     N1626   2.075       .  S
N1619      N1620   1.322       .  A
N1619      C1623   1.344       .  A
N1620      C1621   1.346       .  A
C1621      C1622   1.384       .  A
C1621      H1624   1.082       .  S
C1622      C1623   1.384       .  A
C1622      C3280   1.488       .  S
C1623      H1625   1.082       .  S
N1626      N1627   1.322       .  A
N1626      C1630   1.345       .  A
N1627      C1628   1.345       .  A
C1628      C1629   1.385       .  A
C1628      H1631   1.082       .  S
C1629      C1630   1.385       .  A
C1629      C2048   1.490       .  S
C1630      H1632   1.082       .  S
N1633      N1634   1.323       .  A
N1633      C1637   1.348       .  A
N1633     Cu1641   2.091       .  S
N1634      C1635   1.345       .  A
N1634     Cu1640   2.078       .  S
C1635      C1636   1.384       .  A
C1635      H1638   1.082       .  S
C1636      C1637   1.388       .  A
C1636      C4512   1.494       .  S
C1637      H1639   1.082       .  S
Cu1640     N1643   2.078       .  S
Cu1641     N1651   2.091       .  S
Cu1642     N1644   2.074       .  S
Cu1642     N1650   2.074       .  S
N1643      N1644   1.321       .  A
N1643      C1647   1.346       .  A
N1644      C1645   1.346       .  A
C1645      C1646   1.385       .  A
C1645      H1648   1.082       .  S
C1646      C1647   1.386       .  A
C1646      C4120   1.491       .  S
C1647      H1649   1.082       .  S
N1650      N1651   1.322       .  A
N1650      C1654   1.344       .  A
N1651      C1652   1.348       .  A
C1652      C1653   1.390       .  A
C1652      H1655   1.082       .  S
C1653      C1654   1.385       .  A
C1653      C1901   1.497       .  S
C1654      H1656   1.082       .  S
N1657      N1658   1.322       .  A
N1657      C1661   1.347       .  A
N1657     Cu1665   2.088       .  S
N1658      C1659   1.344       .  A
N1658     Cu1664   2.070       .  S
C1659      C1660   1.385       .  A
C1659      H1662   1.082       .  S
C1660      C1661   1.389       .  A
C1660      C3420   1.496       .  S
C1661      H1663   1.082       .  S
Cu1664     N1667   2.070       .  S
Cu1665     N1675   2.088       .  S
Cu1666     N1668   2.072       .  S
Cu1666     N1674   2.073       .  S
N1667      N1668   1.321       .  A
N1667      C1671   1.343       .  A
N1668      C1669   1.346       .  A
C1669      C1670   1.386       .  A
C1669      H1672   1.082       .  S
C1670      C1671   1.384       .  A
C1670      C2608   1.490       .  S
C1671      H1673   1.082       .  S
N1674      N1675   1.323       .  A
N1674      C1678   1.345       .  A
N1675      C1676   1.347       .  A
C1676      C1677   1.387       .  A
C1676      H1679   1.082       .  S
C1677      C1678   1.383       .  A
C1677      C2020   1.490       .  S
C1678      H1680   1.082       .  S
N1681      N1682   1.321       .  A
N1681      C1685   1.346       .  A
N1681     Cu1689   2.073       .  S
N1682      C1683   1.345       .  A
N1682     Cu1688   2.078       .  S
C1683      C1684   1.386       .  A
C1683      H1686   1.082       .  S
C1684      C1685   1.385       .  A
C1684      C3448   1.491       .  S
C1685      H1687   1.082       .  S
Cu1688     N1691   2.078       .  S
Cu1689     N1699   2.073       .  S
Cu1690     N1692   2.079       .  S
Cu1690     N1698   2.079       .  S
N1691      N1692   1.323       .  A
N1691      C1695   1.345       .  A
N1692      C1693   1.346       .  A
C1693      C1694   1.385       .  A
C1693      H1696   1.082       .  S
C1694      C1695   1.384       .  A
C1694      C4428   1.489       .  S
C1695      H1697   1.082       .  S
N1698      N1699   1.322       .  A
N1698      C1702   1.347       .  A
N1699      C1700   1.343       .  A
C1700      C1701   1.384       .  A
C1700      H1703   1.081       .  S
C1701      C1702   1.387       .  A
C1701      C1964   1.490       .  S
C1702      H1704   1.082       .  S
N1705      N1706   1.321       .  A
N1705      C1709   1.345       .  A
N1705     Cu1713   2.076       .  S
N1706      C1707   1.345       .  A
N1706     Cu1712   2.070       .  S
C1707      C1708   1.385       .  A
C1707      H1710   1.081       .  S
C1708      C1709   1.386       .  A
C1708      C2944   1.490       .  S
C1709      H1711   1.082       .  S
Cu1712     N1715   2.069       .  S
Cu1713     N1723   2.076       .  S
Cu1714     N1716   2.078       .  S
Cu1714     N1722   2.078       .  S
N1715      N1716   1.322       .  A
N1715      C1719   1.343       .  A
N1716      C1717   1.346       .  A
C1717      C1718   1.386       .  A
C1717      H1720   1.082       .  S
C1718      C1719   1.384       .  A
C1718      C3756   1.490       .  S
C1719      H1721   1.082       .  S
N1722      N1723   1.322       .  A
N1722      C1726   1.346       .  A
N1723      C1724   1.345       .  A
C1724      C1725   1.385       .  A
C1724      H1727   1.082       .  S
C1725      C1726   1.385       .  A
C1725      C1992   1.490       .  S
C1726      H1728   1.082       .  S
C1729      C1730   1.409       .  A
C1729      C1734   1.408       .  A
C1729      C1747   1.451   1_554  S
C1730      C1731   1.411       .  A
C1730      C1735   1.494   1_565  S
C1731      C1732   1.412       .  A
C1731      C1736   1.451       .  S
C1732      C1733   1.415       .  A
C1732      C1748   1.450       .  S
C1733      C1734   1.415       .  A
C1734      C1737   1.451   1_554  S
C1735      C1738   1.409       .  A
C1735      C1742   1.409       .  A
C1736      N1753   1.157       .  T
C1737      N1755   1.157       .  T
C1738      C1739   1.411   1_554  A
C1738      C1743   1.451   1_554  S
C1739      C1740   1.417   1_556  A
C1739      C1745   1.451       .  S
C1740      C1741   1.418       .  A
C1741      C1742   1.410       .  A
C1741      C1744   1.451       .  S
C1742      C1746   1.451       .  S
C1743      N1750   1.157   1_545  T
C1744      N1751   1.157       .  T
C1745      N1749   1.157       .  T
C1746      N1752   1.157       .  T
C1747      N1756   1.157       .  T
C1748      N1754   1.157       .  T
C1757      C1758   1.411       .  A
C1757      C1762   1.410       .  A
C1757      C1775   1.451       .  S
C1758      C1759   1.411   1_554  A
C1758      C1763   1.496   1_545  S
C1759      C1760   1.410       .  A
C1759      C1764   1.451       .  S
C1760      C1761   1.414   1_556  A
C1760      C1776   1.451       .  S
C1761      C1762   1.415       .  A
C1762      C1765   1.451       .  S
C1763      C1766   1.411   1_554  A
C1763      C1770   1.410       .  A
C1764      N1781   1.157   1_545  T
C1765      N1783   1.157       .  T
C1766      C1767   1.411       .  A
C1766      C1771   1.451       .  S
C1767      C1768   1.416   1_556  A
C1767      C1773   1.451       .  S
C1768      C1769   1.415       .  A
C1769      C1770   1.410       .  A
C1769      C1772   1.451       .  S
C1770      C1774   1.451       .  S
C1771      N1778   1.157       .  T
C1772      N1779   1.157       .  T
C1773      N1777   1.157       .  T
C1774      N1780   1.157       .  T
C1775      N1784   1.157   1_545  T
C1776      N1782   1.157       .  T
C1785      C1786   1.411   1_545  A
C1785      C1790   1.412       .  A
C1785      C1803   1.451       .  S
C1786      C1787   1.411       .  A
C1786      C1791   1.500       .  S
C1787      C1788   1.413       .  A
C1787      C1792   1.451       .  S
C1788      C1789   1.416       .  A
C1788      C1804   1.450   1_455  S
C1789      C1790   1.416   1_565  A
C1790      C1793   1.451       .  S
C1791      C1794   1.411       .  A
C1791      C1798   1.411   1_565  A
C1792      N1809   1.157       .  T
C1793      N1811   1.157   1_455  T
C1794      C1795   1.412       .  A
C1794      C1799   1.450       .  S
C1795      C1796   1.415       .  A
C1795      C1801   1.451       .  S
C1796      C1797   1.416   1_565  A
C1797      C1798   1.412       .  A
C1797      C1800   1.451       .  S
C1798      C1802   1.451       .  S
C1799      N1806   1.157       .  T
C1800      N1807   1.157       .  T
C1801      N1805   1.157       .  T
C1802      N1808   1.157       .  T
C1803      N1812   1.157       .  T
C1804      N1810   1.157       .  T
C1813      C1814   1.409       .  A
C1813      C1818   1.411       .  A
C1813      C1831   1.451       .  S
C1814      C1815   1.411   1_545  A
C1814      C1819   1.497       .  S
C1815      C1816   1.413       .  A
C1815      C1820   1.451       .  S
C1816      C1817   1.416   1_565  A
C1816      C1832   1.450       .  S
C1817      C1818   1.416       .  A
C1818      C1821   1.451       .  S
C1819      C1822   1.410   1_545  A
C1819      C1826   1.411       .  A
C1820      N1837   1.157       .  T
C1821      N1839   1.157   1_455  T
C1822      C1823   1.410       .  A
C1822      C1827   1.451       .  S
C1823      C1824   1.415   1_565  A
C1823      C1829   1.451       .  S
C1824      C1825   1.415       .  A
C1825      C1826   1.413       .  A
C1825      C1828   1.450       .  S
C1826      C1830   1.450       .  S
C1827      N1834   1.157       .  T
C1828      N1835   1.157       .  T
C1829      N1833   1.157       .  T
C1830      N1836   1.157       .  T
C1831      N1840   1.157       .  T
C1832      N1838   1.157   1_455  T
C1841      C1842   1.409       .  A
C1841      C1846   1.408       .  A
C1841      C1859   1.451       .  S
C1842      C1843   1.410       .  A
C1842      C1847   1.493   1_556  S
C1843      C1844   1.412       .  A
C1843      C1848   1.451       .  S
C1844      C1845   1.416       .  A
C1844      C1860   1.450       .  S
C1845      C1846   1.415       .  A
C1846      C1849   1.451       .  S
C1847      C1850   1.410       .  A
C1847      C1854   1.409       .  A
C1848      N1865   1.157       .  T
C1849      N1867   1.157       .  T
C1850      C1851   1.411       .  A
C1850      C1855   1.450       .  S
C1851      C1852   1.414       .  A
C1851      C1857   1.450       .  S
C1852      C1853   1.416       .  A
C1853      C1854   1.408       .  A
C1853      C1856   1.451       .  S
C1854      C1858   1.451       .  S
C1855      N1862   1.157   1_554  T
C1856      N1863   1.157       .  T
C1857      N1861   1.157       .  T
C1858      N1864   1.157       .  T
C1859      N1868   1.157       .  T
C1860      N1866   1.157       .  T
C1869      C1870   1.408       .  A
C1869      C1874   1.411       .  A
C1869      C1887   1.451       .  S
C1870      C1871   1.408       .  A
C1870      C1875   1.493       .  S
C1871      C1872   1.410       .  A
C1871      C1876   1.451       .  S
C1872      C1873   1.418       .  A
C1872      C1888   1.451       .  S
C1873      C1874   1.418       .  A
C1874      C1877   1.451       .  S
C1875      C1878   1.410   1_554  A
C1875      C1882   1.410   1_554  A
C1876      N1893   1.157       .  T
C1877      N1895   1.157       .  T
C1878      C1879   1.410       .  A
C1878      C1883   1.450   1_556  S
C1879      C1880   1.413       .  A
C1879      C1885   1.450       .  S
C1880      C1881   1.414       .  A
C1881      C1882   1.410       .  A
C1881      C1884   1.451       .  S
C1882      C1886   1.451   1_556  S
C1883      N1890   1.157       .  T
C1884      N1891   1.157       .  T
C1885      N1889   1.157       .  T
C1886      N1892   1.157       .  T
C1887      N1896   1.157       .  T
C1888      N1894   1.157       .  T
C1897      C1898   1.410       .  A
C1897      C1902   1.414       .  A
C1897      C1915   1.450       .  S
C1898      C1899   1.410       .  A
C1898      C1903   1.501       .  S
C1899      C1900   1.412       .  A
C1899      C1904   1.451       .  S
C1900      C1901   1.418       .  A
C1900      C1916   1.451       .  S
C1901      C1902   1.418       .  A
C1902      C1905   1.450       .  S
C1903      C1906   1.410       .  A
C1903      C1910   1.411       .  A
C1904      N1921   1.157       .  T
C1905      N1923   1.157       .  T
C1906      C1907   1.411       .  A
C1906      C1911   1.451       .  S
C1907      C1908   1.417       .  A
C1907      C1913   1.451       .  S
C1908      C1909   1.415       .  A
C1909      C1910   1.414       .  A
C1909      C1912   1.450       .  S
C1910      C1914   1.450       .  S
C1911      N1918   1.157       .  T
C1912      N1919   1.157       .  T
C1913      N1917   1.157       .  T
C1914      N1920   1.157       .  T
C1915      N1924   1.157       .  T
C1916      N1922   1.157       .  T
C1925      C1926   1.409       .  A
C1925      C1930   1.412       .  A
C1925      C1943   1.451       .  S
C1926      C1927   1.408       .  A
C1926      C1931   1.495       .  S
C1927      C1928   1.410       .  A
C1927      C1932   1.451       .  S
C1928      C1929   1.418       .  A
C1928      C1944   1.451       .  S
C1929      C1930   1.418       .  A
C1930      C1933   1.450       .  S
C1931      C1934   1.410       .  A
C1931      C1938   1.409       .  A
C1932      N1949   1.157       .  T
C1933      N1951   1.157       .  T
C1934      C1935   1.411       .  A
C1934      C1939   1.451       .  S
C1935      C1936   1.415       .  A
C1935      C1941   1.451       .  S
C1936      C1937   1.416       .  A
C1937      C1938   1.411       .  A
C1937      C1940   1.451       .  S
C1938      C1942   1.451       .  S
C1939      N1946   1.157       .  T
C1940      N1947   1.157       .  T
C1941      N1945   1.157       .  T
C1942      N1948   1.157       .  T
C1943      N1952   1.157       .  T
C1944      N1950   1.157       .  T
C1953      C1954   1.411       .  A
C1953      C1958   1.411       .  A
C1953      C1971   1.451       .  S
C1954      C1955   1.410       .  A
C1954      C1959   1.497       .  S
C1955      C1956   1.411       .  A
C1955      C1960   1.451       .  S
C1956      C1957   1.417       .  A
C1956      C1972   1.451       .  S
C1957      C1958   1.415       .  A
C1958      C1961   1.451       .  S
C1959      C1962   1.411       .  A
C1959      C1966   1.410       .  A
C1960      N1977   1.157       .  T
C1961      N1979   1.157       .  T
C1962      C1963   1.412       .  A
C1962      C1967   1.451       .  S
C1963      C1964   1.416       .  A
C1963      C1969   1.451       .  S
C1964      C1965   1.416       .  A
C1965      C1966   1.410       .  A
C1965      C1968   1.451       .  S
C1966      C1970   1.451       .  S
C1967      N1974   1.157       .  T
C1968      N1975   1.157       .  T
C1969      N1973   1.157       .  T
C1970      N1976   1.157       .  T
C1971      N1980   1.157       .  T
C1972      N1978   1.157       .  T
C1981      C1982   1.410       .  A
C1981      C1986   1.410       .  A
C1981      C1999   1.451       .  S
C1982      C1983   1.410       .  A
C1982      C1987   1.497       .  S
C1983      C1984   1.413       .  A
C1983      C1988   1.450       .  S
C1984      C1985   1.416       .  A
C1984      C2000   1.450       .  S
C1985      C1986   1.415       .  A
C1986      C1989   1.451       .  S
C1987      C1990   1.410       .  A
C1987      C1994   1.410       .  A
C1988      N2005   1.157       .  T
C1989      N2007   1.157       .  T
C1990      C1991   1.411       .  A
C1990      C1995   1.451       .  S
C1991      C1992   1.416       .  A
C1991      C1997   1.451       .  S
C1992      C1993   1.416       .  A
C1993      C1994   1.411       .  A
C1993      C1996   1.451       .  S
C1994      C1998   1.451       .  S
C1995      N2002   1.157       .  T
C1996      N2003   1.157       .  T
C1997      N2001   1.157       .  T
C1998      N2004   1.157       .  T
C1999      N2008   1.157       .  T
C2000      N2006   1.157       .  T
C2009      C2010   1.409       .  A
C2009      C2014   1.411       .  A
C2009      C2027   1.451       .  S
C2010      C2011   1.409       .  A
C2010      C2015   1.497       .  S
C2011      C2012   1.412       .  A
C2011      C2016   1.451       .  S
C2012      C2013   1.418       .  A
C2012      C2028   1.451       .  S
C2013      C2014   1.418       .  A
C2014      C2017   1.450       .  S
C2015      C2018   1.410       .  A
C2015      C2022   1.411       .  A
C2016      N2033   1.157       .  T
C2017      N2035   1.157       .  T
C2018      C2019   1.411       .  A
C2018      C2023   1.450       .  S
C2019      C2020   1.415       .  A
C2019      C2025   1.450       .  S
C2020      C2021   1.416       .  A
C2021      C2022   1.412       .  A
C2021      C2024   1.451       .  S
C2022      C2026   1.451       .  S
C2023      N2030   1.157       .  T
C2024      N2031   1.157       .  T
C2025      N2029   1.157       .  T
C2026      N2032   1.157       .  T
C2027      N2036   1.157       .  T
C2028      N2034   1.157       .  T
C2037      C2038   1.410       .  A
C2037      C2042   1.412       .  A
C2037      C2055   1.451       .  S
C2038      C2039   1.408       .  A
C2038      C2043   1.496       .  S
C2039      C2040   1.410       .  A
C2039      C2044   1.451       .  S
C2040      C2041   1.417       .  A
C2040      C2056   1.451       .  S
C2041      C2042   1.417       .  A
C2042      C2045   1.450       .  S
C2043      C2046   1.409       .  A
C2043      C2050   1.410       .  A
C2044      N2061   1.157       .  T
C2045      N2063   1.157       .  T
C2046      C2047   1.411       .  A
C2046      C2051   1.451       .  S
C2047      C2048   1.416       .  A
C2047      C2053   1.451       .  S
C2048      C2049   1.416       .  A
C2049      C2050   1.410       .  A
C2049      C2052   1.451       .  S
C2050      C2054   1.451       .  S
C2051      N2058   1.157       .  T
C2052      N2059   1.157       .  T
C2053      N2057   1.157       .  T
C2054      N2060   1.157       .  T
C2055      N2064   1.157       .  T
C2056      N2062   1.157       .  T
C2065      C2066   1.410       .  A
C2065      C2070   1.412       .  A
C2065      C2083   1.451       .  S
C2066      C2067   1.409       .  A
C2066      C2071   1.497       .  S
C2067      C2068   1.412       .  A
C2067      C2072   1.451       .  S
C2068      C2069   1.417       .  A
C2068      C2084   1.450       .  S
C2069      C2070   1.417       .  A
C2070      C2073   1.451       .  S
C2071      C2074   1.410       .  A
C2071      C2078   1.410       .  A
C2072      N2089   1.157       .  T
C2073      N2091   1.157       .  T
C2074      C2075   1.411       .  A
C2074      C2079   1.451       .  S
C2075      C2076   1.416       .  A
C2075      C2081   1.450       .  S
C2076      C2077   1.416       .  A
C2077      C2078   1.412       .  A
C2077      C2080   1.451       .  S
C2078      C2082   1.451       .  S
C2079      N2086   1.157       .  T
C2080      N2087   1.157       .  T
C2081      N2085   1.157       .  T
C2082      N2088   1.157       .  T
C2083      N2092   1.157       .  T
C2084      N2090   1.157       .  T
C2093      C2094   1.409       .  A
C2093      C2098   1.409       .  A
C2093      C2111   1.451       .  S
C2094      C2095   1.410       .  A
C2094      C2099   1.493       .  S
C2095      C2096   1.410       .  A
C2095      C2100   1.451       .  S
C2096      C2097   1.415       .  A
C2096      C2112   1.451       .  S
C2097      C2098   1.416       .  A
C2098      C2101   1.451       .  S
C2099      C2102   1.409       .  A
C2099      C2106   1.410       .  A
C2100      N2117   1.157       .  T
C2101      N2119   1.157       .  T
C2102      C2103   1.409       .  A
C2102      C2107   1.451       .  S
C2103      C2104   1.415       .  A
C2103      C2109   1.451       .  S
C2104      C2105   1.415       .  A
C2105      C2106   1.410       .  A
C2105      C2108   1.451       .  S
C2106      C2110   1.451       .  S
C2107      N2114   1.157       .  T
C2108      N2115   1.157       .  T
C2109      N2113   1.157       .  T
C2110      N2116   1.157       .  T
C2111      N2120   1.157       .  T
C2112      N2118   1.157       .  T
C2121      C2122   1.410       .  A
C2121      C2126   1.411       .  A
C2121      C2139   1.450       .  S
C2122      C2123   1.409       .  A
C2122      C2127   1.494       .  S
C2123      C2124   1.409       .  A
C2123      C2128   1.451       .  S
C2124      C2125   1.415       .  A
C2124      C2140   1.451       .  S
C2125      C2126   1.414       .  A
C2126      C2129   1.450       .  S
C2127      C2130   1.410       .  A
C2127      C2134   1.409       .  A
C2128      N2145   1.157       .  T
C2129      N2147   1.157       .  T
C2130      C2131   1.410       .  A
C2130      C2135   1.451       .  S
C2131      C2132   1.416       .  A
C2131      C2137   1.451       .  S
C2132      C2133   1.416       .  A
C2133      C2134   1.410       .  A
C2133      C2136   1.450       .  S
C2134      C2138   1.450       .  S
C2135      N2142   1.157       .  T
C2136      N2143   1.157       .  T
C2137      N2141   1.157       .  T
C2138      N2144   1.157       .  T
C2139      N2148   1.157       .  T
C2140      N2146   1.157       .  T
C2149      C2150   1.411       .  A
C2149      C2154   1.410       .  A
C2149      C2167   1.450       .  S
C2150      C2151   1.411       .  A
C2150      C2155   1.495       .  S
C2151      C2152   1.410       .  A
C2151      C2156   1.451       .  S
C2152      C2153   1.414       .  A
C2152      C2168   1.451       .  S
C2153      C2154   1.414       .  A
C2154      C2157   1.451       .  S
C2155      C2158   1.410       .  A
C2155      C2162   1.409       .  A
C2156      N2173   1.157       .  T
C2157      N2175   1.157       .  T
C2158      C2159   1.410       .  A
C2158      C2163   1.451       .  S
C2159      C2160   1.416       .  A
C2159      C2165   1.451       .  S
C2160      C2161   1.416       .  A
C2161      C2162   1.411       .  A
C2161      C2164   1.450       .  S
C2162      C2166   1.451       .  S
C2163      N2170   1.157       .  T
C2164      N2171   1.157       .  T
C2165      N2169   1.157       .  T
C2166      N2172   1.157       .  T
C2167      N2176   1.157       .  T
C2168      N2174   1.157       .  T
C2177      C2178   1.410       .  A
C2177      C2182   1.407       .  A
C2177      C2195   1.452       .  S
C2178      C2179   1.411       .  A
C2178      C2183   1.493       .  S
C2179      C2180   1.412       .  A
C2179      C2184   1.450       .  S
C2180      C2181   1.413       .  A
C2180      C2196   1.450       .  S
C2181      C2182   1.415       .  A
C2182      C2185   1.451       .  S
C2183      C2186   1.410       .  A
C2183      C2190   1.411       .  A
C2184      N2201   1.157       .  T
C2185      N2203   1.157       .  T
C2186      C2187   1.407       .  A
C2186      C2191   1.451       .  S
C2187      C2188   1.413       .  A
C2187      C2193   1.451       .  S
C2188      C2189   1.412       .  A
C2189      C2190   1.411       .  A
C2189      C2192   1.450       .  S
C2190      C2194   1.450       .  S
C2191      N2198   1.157       .  T
C2192      N2199   1.157       .  T
C2193      N2197   1.157       .  T
C2194      N2200   1.157       .  T
C2195      N2204   1.157       .  T
C2196      N2202   1.157       .  T
C2205      C2206   1.413       .  A
C2205      C2210   1.413       .  A
C2205      C2223   1.450       .  S
C2206      C2207   1.413       .  A
C2206      C2211   1.504       .  S
C2207      C2208   1.411       .  A
C2207      C2212   1.451       .  S
C2208      C2209   1.414       .  A
C2208      C2224   1.451       .  S
C2209      C2210   1.415       .  A
C2210      C2213   1.451       .  S
C2211      C2214   1.412       .  A
C2211      C2218   1.412       .  A
C2212      N2229   1.157       .  T
C2213      N2231   1.157       .  T
C2214      C2215   1.412       .  A
C2214      C2219   1.451       .  S
C2215      C2216   1.416       .  A
C2215      C2221   1.451       .  S
C2216      C2217   1.417       .  A
C2217      C2218   1.413       .  A
C2217      C2220   1.450       .  S
C2218      C2222   1.451       .  S
C2219      N2226   1.157       .  T
C2220      N2227   1.157       .  T
C2221      N2225   1.157       .  T
C2222      N2228   1.157       .  T
C2223      N2232   1.157       .  T
C2224      N2230   1.157       .  T
C2233      C2234   1.409       .  A
C2233      C2238   1.411       .  A
C2233      C2251   1.451       .  S
C2234      C2235   1.410       .  A
C2234      C2239   1.497       .  S
C2235      C2236   1.410       .  A
C2235      C2240   1.452       .  S
C2236      C2237   1.418       .  A
C2236      C2252   1.451       .  S
C2237      C2238   1.419       .  A
C2238      C2241   1.451       .  S
C2239      C2242   1.410       .  A
C2239      C2246   1.409       .  A
C2240      N2257   1.157       .  T
C2241      N2259   1.157       .  T
C2242      C2243   1.410       .  A
C2242      C2247   1.452       .  S
C2243      C2244   1.419       .  A
C2243      C2249   1.451       .  S
C2244      C2245   1.420       .  A
C2245      C2246   1.411       .  A
C2245      C2248   1.451       .  S
C2246      C2250   1.452       .  S
C2247      N2254   1.157       .  T
C2248      N2255   1.158       .  T
C2249      N2253   1.157       .  T
C2250      N2256   1.157       .  T
C2251      N2260   1.157       .  T
C2252      N2258   1.157       .  T
C2261      C2262   1.409       .  A
C2261      C2266   1.409       .  A
C2261      C2279   1.451       .  S
C2262      C2263   1.409       .  A
C2262      C2267   1.492       .  S
C2263      C2264   1.410       .  A
C2263      C2268   1.451       .  S
C2264      C2265   1.417       .  A
C2264      C2280   1.451       .  S
C2265      C2266   1.416       .  A
C2266      C2269   1.451       .  S
C2267      C2270   1.410       .  A
C2267      C2274   1.409       .  A
C2268      N2285   1.157       .  T
C2269      N2287   1.157       .  T
C2270      C2271   1.409       .  A
C2270      C2275   1.451       .  S
C2271      C2272   1.415       .  A
C2271      C2277   1.451       .  S
C2272      C2273   1.416       .  A
C2273      C2274   1.410       .  A
C2273      C2276   1.451       .  S
C2274      C2278   1.451       .  S
C2275      N2282   1.157       .  T
C2276      N2283   1.157       .  T
C2277      N2281   1.157       .  T
C2278      N2284   1.157       .  T
C2279      N2288   1.157       .  T
C2280      N2286   1.157       .  T
C2289      C2290   1.411       .  A
C2289      C2294   1.410       .  A
C2289      C2307   1.450       .  S
C2290      C2291   1.412       .  A
C2290      C2295   1.497       .  S
C2291      C2292   1.411       .  A
C2291      C2296   1.451       .  S
C2292      C2293   1.413       .  A
C2292      C2308   1.451       .  S
C2293      C2294   1.414       .  A
C2294      C2297   1.451       .  S
C2295      C2298   1.411       .  A
C2295      C2302   1.411       .  A
C2296      N2313   1.157       .  T
C2297      N2315   1.157       .  T
C2298      C2299   1.410       .  A
C2298      C2303   1.451       .  S
C2299      C2300   1.415       .  A
C2299      C2305   1.451       .  S
C2300      C2301   1.415       .  A
C2301      C2302   1.412       .  A
C2301      C2304   1.450       .  S
C2302      C2306   1.451       .  S
C2303      N2310   1.157       .  T
C2304      N2311   1.157       .  T
C2305      N2309   1.157       .  T
C2306      N2312   1.157       .  T
C2307      N2316   1.157       .  T
C2308      N2314   1.157       .  T
C2317      C2318   1.409       .  A
C2317      C2322   1.412       .  A
C2317      C2335   1.451       .  S
C2318      C2319   1.409       .  A
C2318      C2323   1.498       .  S
C2319      C2320   1.412       .  A
C2319      C2324   1.451       .  S
C2320      C2321   1.418       .  A
C2320      C2336   1.451       .  S
C2321      C2322   1.418       .  A
C2322      C2325   1.450       .  S
C2323      C2326   1.410       .  A
C2323      C2330   1.410       .  A
C2324      N2341   1.157       .  T
C2325      N2343   1.157       .  T
C2326      C2327   1.414       .  A
C2326      C2331   1.450       .  S
C2327      C2328   1.416       .  A
C2327      C2333   1.450       .  S
C2328      C2329   1.415       .  A
C2329      C2330   1.410       .  A
C2329      C2332   1.451       .  S
C2330      C2334   1.451       .  S
C2331      N2338   1.157       .  T
C2332      N2339   1.157       .  T
C2333      N2337   1.157       .  T
C2334      N2340   1.157       .  T
C2335      N2344   1.157       .  T
C2336      N2342   1.157       .  T
C2345      C2346   1.410       .  A
C2345      C2350   1.410       .  A
C2345      C2363   1.451       .  S
C2346      C2347   1.410       .  A
C2346      C2351   1.494       .  S
C2347      C2348   1.409       .  A
C2347      C2352   1.451       .  S
C2348      C2349   1.415       .  A
C2348      C2364   1.451       .  S
C2349      C2350   1.414       .  A
C2350      C2353   1.451       .  S
C2351      C2354   1.410       .  A
C2351      C2358   1.408       .  A
C2352      N2369   1.157       .  T
C2353      N2371   1.157       .  T
C2354      C2355   1.412       .  A
C2354      C2359   1.451       .  S
C2355      C2356   1.416       .  A
C2355      C2361   1.450       .  S
C2356      C2357   1.418       .  A
C2357      C2358   1.410       .  A
C2357      C2360   1.451       .  S
C2358      C2362   1.451       .  S
C2359      N2366   1.157       .  T
C2360      N2367   1.157       .  T
C2361      N2365   1.157       .  T
C2362      N2368   1.157       .  T
C2363      N2372   1.157       .  T
C2364      N2370   1.157       .  T
C2373      C2374   1.409       .  A
C2373      C2378   1.408       .  A
C2373      C2391   1.452       .  S
C2374      C2375   1.410       .  A
C2374      C2379   1.494       .  S
C2375      C2376   1.412       .  A
C2375      C2380   1.450       .  S
C2376      C2377   1.415       .  A
C2376      C2392   1.450       .  S
C2377      C2378   1.417       .  A
C2378      C2381   1.451       .  S
C2379      C2382   1.409       .  A
C2379      C2386   1.410       .  A
C2380      N2397   1.157       .  T
C2381      N2399   1.157       .  T
C2382      C2383   1.409       .  A
C2382      C2387   1.451       .  S
C2383      C2384   1.415       .  A
C2383      C2389   1.451       .  S
C2384      C2385   1.415       .  A
C2385      C2386   1.411       .  A
C2385      C2388   1.451       .  S
C2386      C2390   1.450       .  S
C2387      N2394   1.157       .  T
C2388      N2395   1.157       .  T
C2389      N2393   1.157       .  T
C2390      N2396   1.157       .  T
C2391      N2400   1.157       .  T
C2392      N2398   1.157       .  T
C2401      C2402   1.412       .  A
C2401      C2406   1.412       .  A
C2401      C2419   1.451       .  S
C2402      C2403   1.412       .  A
C2402      C2407   1.500       .  S
C2403      C2404   1.411       .  A
C2403      C2408   1.450       .  S
C2404      C2405   1.414       .  A
C2404      C2420   1.451       .  S
C2405      C2406   1.414       .  A
C2406      C2409   1.451       .  S
C2407      C2410   1.411       .  A
C2407      C2414   1.411       .  A
C2408      N2425   1.157       .  T
C2409      N2427   1.157       .  T
C2410      C2411   1.413       .  A
C2410      C2415   1.450       .  S
C2411      C2412   1.416       .  A
C2411      C2417   1.451       .  S
C2412      C2413   1.416       .  A
C2413      C2414   1.411       .  A
C2413      C2416   1.451       .  S
C2414      C2418   1.451       .  S
C2415      N2422   1.157       .  T
C2416      N2423   1.157       .  T
C2417      N2421   1.157       .  T
C2418      N2424   1.157       .  T
C2419      N2428   1.157       .  T
C2420      N2426   1.157       .  T
C2429      C2430   1.410       .  A
C2429      C2434   1.410       .  A
C2429      C2447   1.451       .  S
C2430      C2431   1.410       .  A
C2430      C2435   1.497       .  S
C2431      C2432   1.413       .  A
C2431      C2436   1.450       .  S
C2432      C2433   1.417       .  A
C2432      C2448   1.451       .  S
C2433      C2434   1.416       .  A
C2434      C2437   1.451       .  S
C2435      C2438   1.410       .  A
C2435      C2442   1.410       .  A
C2436      N2453   1.157       .  T
C2437      N2455   1.157       .  T
C2438      C2439   1.411       .  A
C2438      C2443   1.451       .  S
C2439      C2440   1.416       .  A
C2439      C2445   1.451       .  S
C2440      C2441   1.416       .  A
C2441      C2442   1.413       .  A
C2441      C2444   1.450       .  S
C2442      C2446   1.451       .  S
C2443      N2450   1.157       .  T
C2444      N2451   1.157       .  T
C2445      N2449   1.157       .  T
C2446      N2452   1.157       .  T
C2447      N2456   1.157       .  T
C2448      N2454   1.157       .  T
C2457      C2458   1.410       .  A
C2457      C2462   1.408       .  A
C2457      C2475   1.451       .  S
C2458      C2459   1.410       .  A
C2458      C2463   1.493       .  S
C2459      C2460   1.410       .  A
C2459      C2464   1.450       .  S
C2460      C2461   1.414       .  A
C2460      C2476   1.451       .  S
C2461      C2462   1.415       .  A
C2462      C2465   1.451       .  S
C2463      C2466   1.409       .  A
C2463      C2470   1.409       .  A
C2464      N2481   1.157       .  T
C2465      N2483   1.157       .  T
C2466      C2467   1.409       .  A
C2466      C2471   1.451       .  S
C2467      C2468   1.416       .  A
C2467      C2473   1.451       .  S
C2468      C2469   1.416       .  A
C2469      C2470   1.410       .  A
C2469      C2472   1.451       .  S
C2470      C2474   1.451       .  S
C2471      N2478   1.157       .  T
C2472      N2479   1.157       .  T
C2473      N2477   1.157       .  T
C2474      N2480   1.157       .  T
C2475      N2484   1.157       .  T
C2476      N2482   1.157       .  T
C2485      C2486   1.412       .  A
C2485      C2490   1.407       .  A
C2485      C2503   1.452       .  S
C2486      C2487   1.410       .  A
C2486      C2491   1.491       .  S
C2487      C2488   1.409       .  A
C2487      C2492   1.450       .  S
C2488      C2489   1.414       .  A
C2488      C2504   1.451       .  S
C2489      C2490   1.412       .  A
C2490      C2493   1.451       .  S
C2491      C2494   1.409       .  A
C2491      C2498   1.410       .  A
C2492      N2509   1.157       .  T
C2493      N2511   1.157       .  T
C2494      C2495   1.408       .  A
C2494      C2499   1.451       .  S
C2495      C2496   1.416       .  A
C2495      C2501   1.451       .  S
C2496      C2497   1.416       .  A
C2497      C2498   1.407       .  A
C2497      C2500   1.451       .  S
C2498      C2502   1.452       .  S
C2499      N2506   1.157       .  T
C2500      N2507   1.157       .  T
C2501      N2505   1.157       .  T
C2502      N2508   1.157       .  T
C2503      N2512   1.157       .  T
C2504      N2510   1.157       .  T
C2513      C2514   1.409       .  A
C2513      C2518   1.410       .  A
C2513      C2531   1.450       .  S
C2514      C2515   1.410       .  A
C2514      C2519   1.490       .  S
C2515      C2516   1.407       .  A
C2515      C2520   1.451       .  S
C2516      C2517   1.414       .  A
C2516      C2532   1.451       .  S
C2517      C2518   1.414       .  A
C2518      C2521   1.451       .  S
C2519      C2522   1.409       .  A
C2519      C2526   1.408       .  A
C2520      N2537   1.157       .  T
C2521      N2539   1.157       .  T
C2522      C2523   1.408       .  A
C2522      C2527   1.451       .  S
C2523      C2524   1.415       .  A
C2523      C2529   1.451       .  S
C2524      C2525   1.416       .  A
C2525      C2526   1.409       .  A
C2525      C2528   1.451       .  S
C2526      C2530   1.451       .  S
C2527      N2534   1.157       .  T
C2528      N2535   1.157       .  T
C2529      N2533   1.157       .  T
C2530      N2536   1.157       .  T
C2531      N2540   1.157       .  T
C2532      N2538   1.157       .  T
C2541      C2542   1.411       .  A
C2541      C2546   1.411       .  A
C2541      C2559   1.450       .  S
C2542      C2543   1.410       .  A
C2542      C2547   1.497       .  S
C2543      C2544   1.411       .  A
C2543      C2548   1.451       .  S
C2544      C2545   1.416       .  A
C2544      C2560   1.451       .  S
C2545      C2546   1.414       .  A
C2546      C2549   1.451       .  S
C2547      C2550   1.410       .  A
C2547      C2554   1.409       .  A
C2548      N2565   1.157       .  T
C2549      N2567   1.157       .  T
C2550      C2551   1.412       .  A
C2550      C2555   1.451       .  S
C2551      C2552   1.417       .  A
C2551      C2557   1.451       .  S
C2552      C2553   1.417       .  A
C2553      C2554   1.411       .  A
C2553      C2556   1.451       .  S
C2554      C2558   1.451       .  S
C2555      N2562   1.157       .  T
C2556      N2563   1.157       .  T
C2557      N2561   1.157       .  T
C2558      N2564   1.157       .  T
C2559      N2568   1.157       .  T
C2560      N2566   1.157       .  T
C2569      C2570   1.411       .  A
C2569      C2574   1.410       .  A
C2569      C2587   1.451       .  S
C2570      C2571   1.410       .  A
C2570      C2575   1.496       .  S
C2571      C2572   1.411       .  A
C2571      C2576   1.450       .  S
C2572      C2573   1.416       .  A
C2572      C2588   1.450       .  S
C2573      C2574   1.415       .  A
C2574      C2577   1.451       .  S
C2575      C2578   1.410       .  A
C2575      C2582   1.410       .  A
C2576      N2593   1.157       .  T
C2577      N2595   1.157       .  T
C2578      C2579   1.411       .  A
C2578      C2583   1.450       .  S
C2579      C2580   1.414       .  A
C2579      C2585   1.450       .  S
C2580      C2581   1.415       .  A
C2581      C2582   1.410       .  A
C2581      C2584   1.451       .  S
C2582      C2586   1.451       .  S
C2583      N2590   1.157       .  T
C2584      N2591   1.157       .  T
C2585      N2589   1.157       .  T
C2586      N2592   1.157       .  T
C2587      N2596   1.157       .  T
C2588      N2594   1.157       .  T
C2597      C2598   1.410       .  A
C2597      C2602   1.411       .  A
C2597      C2615   1.451       .  S
C2598      C2599   1.409       .  A
C2598      C2603   1.493       .  S
C2599      C2600   1.409       .  A
C2599      C2604   1.451       .  S
C2600      C2601   1.417       .  A
C2600      C2616   1.451       .  S
C2601      C2602   1.415       .  A
C2602      C2605   1.451       .  S
C2603      C2606   1.409       .  A
C2603      C2610   1.409       .  A
C2604      N2621   1.157       .  T
C2605      N2623   1.157       .  T
C2606      C2607   1.408       .  A
C2606      C2611   1.451       .  S
C2607      C2608   1.416       .  A
C2607      C2613   1.451       .  S
C2608      C2609   1.417       .  A
C2609      C2610   1.412       .  A
C2609      C2612   1.450       .  S
C2610      C2614   1.451       .  S
C2611      N2618   1.157       .  T
C2612      N2619   1.157       .  T
C2613      N2617   1.157       .  T
C2614      N2620   1.157       .  T
C2615      N2624   1.157       .  T
C2616      N2622   1.157       .  T
C2625      C2626   1.408       .  A
C2625      C2630   1.408       .  A
C2625      C2643   1.451       .  S
C2626      C2627   1.408       .  A
C2626      C2631   1.486       .  S
C2627      C2628   1.407       .  A
C2627      C2632   1.452       .  S
C2628      C2629   1.415       .  A
C2628      C2644   1.451       .  S
C2629      C2630   1.414       .  A
C2630      C2633   1.451       .  S
C2631      C2634   1.408       .  A
C2631      C2638   1.408       .  A
C2632      N2649   1.157       .  T
C2633      N2651   1.157       .  T
C2634      C2635   1.406       .  A
C2634      C2639   1.451       .  S
C2635      C2636   1.414       .  A
C2635      C2641   1.451       .  S
C2636      C2637   1.415       .  A
C2637      C2638   1.408       .  A
C2637      C2640   1.451       .  S
C2638      C2642   1.451       .  S
C2639      N2646   1.157       .  T
C2640      N2647   1.157       .  T
C2641      N2645   1.157       .  T
C2642      N2648   1.157       .  T
C2643      N2652   1.157       .  T
C2644      N2650   1.157       .  T
C2653      C2654   1.410       .  A
C2653      C2658   1.410       .  A
C2653      C2671   1.451       .  S
C2654      C2655   1.410       .  A
C2654      C2659   1.494       .  S
C2655      C2656   1.410       .  A
C2655      C2660   1.451       .  S
C2656      C2657   1.415       .  A
C2656      C2672   1.451       .  S
C2657      C2658   1.415       .  A
C2658      C2661   1.451       .  S
C2659      C2662   1.410       .  A
C2659      C2666   1.409       .  A
C2660      N2677   1.157       .  T
C2661      N2679   1.157       .  T
C2662      C2663   1.410       .  A
C2662      C2667   1.451       .  S
C2663      C2664   1.415       .  A
C2663      C2669   1.451       .  S
C2664      C2665   1.417       .  A
C2665      C2666   1.409       .  A
C2665      C2668   1.451       .  S
C2666      C2670   1.451       .  S
C2667      N2674   1.157       .  T
C2668      N2675   1.157       .  T
C2669      N2673   1.157       .  T
C2670      N2676   1.157       .  T
C2671      N2680   1.157       .  T
C2672      N2678   1.157       .  T
C2681      C2682   1.411       .  A
C2681      C2686   1.410       .  A
C2681      C2699   1.452       .  S
C2682      C2683   1.410       .  A
C2682      C2687   1.497       .  S
C2683      C2684   1.410       .  A
C2683      C2688   1.452       .  S
C2684      C2685   1.419       .  A
C2684      C2700   1.450       .  S
C2685      C2686   1.419       .  A
C2686      C2689   1.451       .  S
C2687      C2690   1.411       .  A
C2687      C2694   1.411       .  A
C2688      N2705   1.157       .  T
C2689      N2707   1.158       .  T
C2690      C2691   1.411       .  A
C2690      C2695   1.451       .  S
C2691      C2692   1.418       .  A
C2691      C2697   1.451       .  S
C2692      C2693   1.416       .  A
C2693      C2694   1.408       .  A
C2693      C2696   1.451       .  S
C2694      C2698   1.452       .  S
C2695      N2702   1.157       .  T
C2696      N2703   1.157       .  T
C2697      N2701   1.158       .  T
C2698      N2704   1.157       .  T
C2699      N2708   1.157       .  T
C2700      N2706   1.157       .  T
C2709      C2710   1.409       .  A
C2709      C2714   1.409       .  A
C2709      C2727   1.451       .  S
C2710      C2711   1.410       .  A
C2710      C2715   1.490       .  S
C2711      C2712   1.408       .  A
C2711      C2716   1.451       .  S
C2712      C2713   1.412       .  A
C2712      C2728   1.451       .  S
C2713      C2714   1.413       .  A
C2714      C2717   1.451       .  S
C2715      C2718   1.410       .  A
C2715      C2722   1.410       .  A
C2716      N2733   1.157       .  T
C2717      N2735   1.157       .  T
C2718      C2719   1.408       .  A
C2718      C2723   1.450       .  S
C2719      C2720   1.412       .  A
C2719      C2725   1.451       .  S
C2720      C2721   1.411       .  A
C2721      C2722   1.409       .  A
C2721      C2724   1.451       .  S
C2722      C2726   1.450       .  S
C2723      N2730   1.157       .  T
C2724      N2731   1.157       .  T
C2725      N2729   1.157       .  T
C2726      N2732   1.157       .  T
C2727      N2736   1.157       .  T
C2728      N2734   1.157       .  T
C2737      C2738   1.409       .  A
C2737      C2742   1.412       .  A
C2737      C2755   1.450       .  S
C2738      C2739   1.409       .  A
C2738      C2743   1.497       .  S
C2739      C2740   1.411       .  A
C2739      C2744   1.451       .  S
C2740      C2741   1.417       .  A
C2740      C2756   1.451       .  S
C2741      C2742   1.417       .  A
C2742      C2745   1.450       .  S
C2743      C2746   1.410       .  A
C2743      C2750   1.410       .  A
C2744      N2761   1.157       .  T
C2745      N2763   1.157       .  T
C2746      C2747   1.411       .  A
C2746      C2751   1.451       .  S
C2747      C2748   1.416       .  A
C2747      C2753   1.451       .  S
C2748      C2749   1.416       .  A
C2749      C2750   1.412       .  A
C2749      C2752   1.450       .  S
C2750      C2754   1.451       .  S
C2751      N2758   1.157       .  T
C2752      N2759   1.157       .  T
C2753      N2757   1.157       .  T
C2754      N2760   1.157       .  T
C2755      N2764   1.157       .  T
C2756      N2762   1.157       .  T
C2765      C2766   1.410       .  A
C2765      C2770   1.411       .  A
C2765      C2783   1.451       .  S
C2766      C2767   1.411       .  A
C2766      C2771   1.496       .  S
C2767      C2768   1.410       .  A
C2767      C2772   1.451       .  S
C2768      C2769   1.414       .  A
C2768      C2784   1.451       .  S
C2769      C2770   1.415       .  A
C2770      C2773   1.451       .  S
C2771      C2774   1.410       .  A
C2771      C2778   1.410       .  A
C2772      N2789   1.157       .  T
C2773      N2791   1.157       .  T
C2774      C2775   1.410       .  A
C2774      C2779   1.451       .  S
C2775      C2776   1.415       .  A
C2775      C2781   1.451       .  S
C2776      C2777   1.416       .  A
C2777      C2778   1.412       .  A
C2777      C2780   1.450       .  S
C2778      C2782   1.451       .  S
C2779      N2786   1.157       .  T
C2780      N2787   1.157       .  T
C2781      N2785   1.157       .  T
C2782      N2788   1.157       .  T
C2783      N2792   1.157       .  T
C2784      N2790   1.157       .  T
C2793      C2794   1.411       .  A
C2793      C2798   1.411       .  A
C2793      C2811   1.450       .  S
C2794      C2795   1.410       .  A
C2794      C2799   1.496       .  S
C2795      C2796   1.410       .  A
C2795      C2800   1.450       .  S
C2796      C2797   1.413       .  A
C2796      C2812   1.451       .  S
C2797      C2798   1.413       .  A
C2798      C2801   1.451       .  S
C2799      C2802   1.409       .  A
C2799      C2806   1.409       .  A
C2800      N2817   1.157       .  T
C2801      N2819   1.157       .  T
C2802      C2803   1.411       .  A
C2802      C2807   1.451       .  S
C2803      C2804   1.419       .  A
C2803      C2809   1.451       .  S
C2804      C2805   1.418       .  A
C2805      C2806   1.412       .  A
C2805      C2808   1.450       .  S
C2806      C2810   1.451       .  S
C2807      N2814   1.157       .  T
C2808      N2815   1.157       .  T
C2809      N2813   1.157       .  T
C2810      N2816   1.157       .  T
C2811      N2820   1.157       .  T
C2812      N2818   1.157       .  T
C2821      C2822   1.410       .  A
C2821      C2826   1.412       .  A
C2821      C2839   1.450       .  S
C2822      C2823   1.410       .  A
C2822      C2827   1.493       .  S
C2823      C2824   1.407       .  A
C2823      C2828   1.451       .  S
C2824      C2825   1.414       .  A
C2824      C2840   1.451       .  S
C2825      C2826   1.414       .  A
C2826      C2829   1.451       .  S
C2827      C2830   1.410       .  A
C2827      C2834   1.409       .  A
C2828      N2845   1.157       .  T
C2829      N2847   1.157       .  T
C2830      C2831   1.411       .  A
C2830      C2835   1.450       .  S
C2831      C2832   1.414       .  A
C2831      C2837   1.450       .  S
C2832      C2833   1.414       .  A
C2833      C2834   1.409       .  A
C2833      C2836   1.451       .  S
C2834      C2838   1.451       .  S
C2835      N2842   1.157       .  T
C2836      N2843   1.157       .  T
C2837      N2841   1.157       .  T
C2838      N2844   1.157       .  T
C2839      N2848   1.157       .  T
C2840      N2846   1.157       .  T
C2849      C2850   1.409       .  A
C2849      C2854   1.411       .  A
C2849      C2867   1.451       .  S
C2850      C2851   1.408       .  A
C2850      C2855   1.490       .  S
C2851      C2852   1.408       .  A
C2851      C2856   1.452       .  S
C2852      C2853   1.418       .  A
C2852      C2868   1.451       .  S
C2853      C2854   1.417       .  A
C2854      C2857   1.450       .  S
C2855      C2858   1.410       .  A
C2855      C2862   1.408       .  A
C2856      N2873   1.157       .  T
C2857      N2875   1.157       .  T
C2858      C2859   1.410       .  A
C2858      C2863   1.451       .  S
C2859      C2860   1.415       .  A
C2859      C2865   1.451       .  S
C2860      C2861   1.415       .  A
C2861      C2862   1.408       .  A
C2861      C2864   1.451       .  S
C2862      C2866   1.451       .  S
C2863      N2870   1.157       .  T
C2864      N2871   1.157       .  T
C2865      N2869   1.157       .  T
C2866      N2872   1.157       .  T
C2867      N2876   1.157       .  T
C2868      N2874   1.157       .  T
C2877      C2878   1.410       .  A
C2877      C2882   1.412       .  A
C2877      C2895   1.451       .  S
C2878      C2879   1.409       .  A
C2878      C2883   1.498       .  S
C2879      C2880   1.411       .  A
C2879      C2884   1.451       .  S
C2880      C2881   1.418       .  A
C2880      C2896   1.451       .  S
C2881      C2882   1.417       .  A
C2882      C2885   1.450       .  S
C2883      C2886   1.409       .  A
C2883      C2890   1.409       .  A
C2884      N2901   1.157       .  T
C2885      N2903   1.157       .  T
C2886      C2887   1.412       .  A
C2886      C2891   1.451       .  S
C2887      C2888   1.419       .  A
C2887      C2893   1.450       .  S
C2888      C2889   1.418       .  A
C2889      C2890   1.412       .  A
C2889      C2892   1.450       .  S
C2890      C2894   1.451       .  S
C2891      N2898   1.157       .  T
C2892      N2899   1.157       .  T
C2893      N2897   1.157       .  T
C2894      N2900   1.157       .  T
C2895      N2904   1.157       .  T
C2896      N2902   1.157       .  T
C2905      C2906   1.410       .  A
C2905      C2910   1.410       .  A
C2905      C2923   1.451       .  S
C2906      C2907   1.409       .  A
C2906      C2911   1.495       .  S
C2907      C2908   1.411       .  A
C2907      C2912   1.450       .  S
C2908      C2909   1.415       .  A
C2908      C2924   1.451       .  S
C2909      C2910   1.415       .  A
C2910      C2913   1.451       .  S
C2911      C2914   1.409       .  A
C2911      C2918   1.410       .  A
C2912      N2929   1.157       .  T
C2913      N2931   1.157       .  T
C2914      C2915   1.410       .  A
C2914      C2919   1.451       .  S
C2915      C2916   1.415       .  A
C2915      C2921   1.451       .  S
C2916      C2917   1.416       .  A
C2917      C2918   1.412       .  A
C2917      C2920   1.450       .  S
C2918      C2922   1.451       .  S
C2919      N2926   1.157       .  T
C2920      N2927   1.157       .  T
C2921      N2925   1.157       .  T
C2922      N2928   1.157       .  T
C2923      N2932   1.157       .  T
C2924      N2930   1.157       .  T
C2933      C2934   1.410       .  A
C2933      C2938   1.411       .  A
C2933      C2951   1.451       .  S
C2934      C2935   1.410       .  A
C2934      C2939   1.496       .  S
C2935      C2936   1.412       .  A
C2935      C2940   1.450       .  S
C2936      C2937   1.415       .  A
C2936      C2952   1.451       .  S
C2937      C2938   1.416       .  A
C2938      C2941   1.451       .  S
C2939      C2942   1.409       .  A
C2939      C2946   1.410       .  A
C2940      N2957   1.157       .  T
C2941      N2959   1.157       .  T
C2942      C2943   1.410       .  A
C2942      C2947   1.450       .  S
C2943      C2944   1.416       .  A
C2943      C2949   1.451       .  S
C2944      C2945   1.416       .  A
C2945      C2946   1.412       .  A
C2945      C2948   1.451       .  S
C2946      C2950   1.451       .  S
C2947      N2954   1.157       .  T
C2948      N2955   1.157       .  T
C2949      N2953   1.157       .  T
C2950      N2956   1.157       .  T
C2951      N2960   1.157       .  T
C2952      N2958   1.157       .  T
C2961      C2962   1.411       .  A
C2961      C2966   1.411       .  A
C2961      C2979   1.451       .  S
C2962      C2963   1.411       .  A
C2962      C2967   1.497       .  S
C2963      C2964   1.411       .  A
C2963      C2968   1.451       .  S
C2964      C2965   1.415       .  A
C2964      C2980   1.451       .  S
C2965      C2966   1.414       .  A
C2966      C2969   1.450       .  S
C2967      C2970   1.412       .  A
C2967      C2974   1.411       .  A
C2968      N2985   1.157       .  T
C2969      N2987   1.157       .  T
C2970      C2971   1.410       .  A
C2970      C2975   1.451       .  S
C2971      C2972   1.412       .  A
C2971      C2977   1.451       .  S
C2972      C2973   1.414       .  A
C2973      C2974   1.411       .  A
C2973      C2976   1.451       .  S
C2974      C2978   1.450       .  S
C2975      N2982   1.157       .  T
C2976      N2983   1.157       .  T
C2977      N2981   1.157       .  T
C2978      N2984   1.157       .  T
C2979      N2988   1.157       .  T
C2980      N2986   1.157       .  T
C2989      C2990   1.411       .  A
C2989      C2994   1.410       .  A
C2989      C3007   1.451       .  S
C2990      C2991   1.411       .  A
C2990      C2995   1.496       .  S
C2991      C2992   1.411       .  A
C2991      C2996   1.450       .  S
C2992      C2993   1.413       .  A
C2992      C3008   1.450       .  S
C2993      C2994   1.414       .  A
C2994      C2997   1.451       .  S
C2995      C2998   1.411       .  A
C2995      C3002   1.412       .  A
C2996      N3013   1.157       .  T
C2997      N3015   1.157       .  T
C2998      C2999   1.409       .  A
C2998      C3003   1.451       .  S
C2999      C3000   1.414       .  A
C2999      C3005   1.451       .  S
C3000      C3001   1.413       .  A
C3001      C3002   1.411       .  A
C3001      C3004   1.451       .  S
C3002      C3006   1.450       .  S
C3003      N3010   1.157       .  T
C3004      N3011   1.157       .  T
C3005      N3009   1.157       .  T
C3006      N3012   1.157       .  T
C3007      N3016   1.157       .  T
C3008      N3014   1.157       .  T
C3017      C3018   1.411       .  A
C3017      C3022   1.411       .  A
C3017      C3035   1.450       .  S
C3018      C3019   1.411       .  A
C3018      C3023   1.497       .  S
C3019      C3020   1.411       .  A
C3019      C3024   1.451       .  S
C3020      C3021   1.414       .  A
C3020      C3036   1.450       .  S
C3021      C3022   1.414       .  A
C3022      C3025   1.450       .  S
C3023      C3026   1.410       .  A
C3023      C3030   1.410       .  A
C3024      N3041   1.157       .  T
C3025      N3043   1.157       .  T
C3026      C3027   1.412       .  A
C3026      C3031   1.450       .  S
C3027      C3028   1.415       .  A
C3027      C3033   1.451       .  S
C3028      C3029   1.417       .  A
C3029      C3030   1.410       .  A
C3029      C3032   1.451       .  S
C3030      C3034   1.451       .  S
C3031      N3038   1.157       .  T
C3032      N3039   1.157       .  T
C3033      N3037   1.157       .  T
C3034      N3040   1.157       .  T
C3035      N3044   1.157       .  T
C3036      N3042   1.157       .  T
C3045      C3046   1.412       .  A
C3045      C3050   1.413       .  A
C3045      C3063   1.450       .  S
C3046      C3047   1.410       .  A
C3046      C3051   1.498       .  S
C3047      C3048   1.409       .  A
C3047      C3052   1.451       .  S
C3048      C3049   1.414       .  A
C3048      C3064   1.451       .  S
C3049      C3050   1.413       .  A
C3050      C3053   1.450       .  S
C3051      C3054   1.411       .  A
C3051      C3058   1.410       .  A
C3052      N3069   1.157       .  T
C3053      N3071   1.157       .  T
C3054      C3055   1.411       .  A
C3054      C3059   1.451       .  S
C3055      C3056   1.415       .  A
C3055      C3061   1.451       .  S
C3056      C3057   1.415       .  A
C3057      C3058   1.413       .  A
C3057      C3060   1.450       .  S
C3058      C3062   1.450       .  S
C3059      N3066   1.157       .  T
C3060      N3067   1.157       .  T
C3061      N3065   1.157       .  T
C3062      N3068   1.157       .  T
C3063      N3072   1.157       .  T
C3064      N3070   1.157       .  T
C3073      C3074   1.410       .  A
C3073      C3078   1.409       .  A
C3073      C3091   1.451       .  S
C3074      C3075   1.410       .  A
C3074      C3079   1.493       .  S
C3075      C3076   1.410       .  A
C3075      C3080   1.450       .  S
C3076      C3077   1.414       .  A
C3076      C3092   1.451       .  S
C3077      C3078   1.414       .  A
C3078      C3081   1.451       .  S
C3079      C3082   1.409       .  A
C3079      C3086   1.410       .  A
C3080      N3097   1.157       .  T
C3081      N3099   1.157       .  T
C3082      C3083   1.410       .  A
C3082      C3087   1.451       .  S
C3083      C3084   1.415       .  A
C3083      C3089   1.451       .  S
C3084      C3085   1.415       .  A
C3085      C3086   1.410       .  A
C3085      C3088   1.451       .  S
C3086      C3090   1.451       .  S
C3087      N3094   1.157       .  T
C3088      N3095   1.157       .  T
C3089      N3093   1.157       .  T
C3090      N3096   1.157       .  T
C3091      N3100   1.157       .  T
C3092      N3098   1.157       .  T
C3101      C3102   1.412       .  A
C3101      C3106   1.411       .  A
C3101      C3119   1.450       .  S
C3102      C3103   1.412       .  A
C3102      C3107   1.501       .  S
C3103      C3104   1.412       .  A
C3103      C3108   1.451       .  S
C3104      C3105   1.414       .  A
C3104      C3120   1.451       .  S
C3105      C3106   1.413       .  A
C3106      C3109   1.451       .  S
C3107      C3110   1.412       .  A
C3107      C3114   1.410       .  A
C3108      N3125   1.157       .  T
C3109      N3127   1.157       .  T
C3110      C3111   1.414       .  A
C3110      C3115   1.450       .  S
C3111      C3112   1.416       .  A
C3111      C3117   1.450       .  S
C3112      C3113   1.417       .  A
C3113      C3114   1.411       .  A
C3113      C3116   1.451       .  S
C3114      C3118   1.451       .  S
C3115      N3122   1.157       .  T
C3116      N3123   1.157       .  T
C3117      N3121   1.157       .  T
C3118      N3124   1.157       .  T
C3119      N3128   1.157       .  T
C3120      N3126   1.157       .  T
C3129      C3130   1.411       .  A
C3129      C3134   1.411       .  A
C3129      C3147   1.450       .  S
C3130      C3131   1.411       .  A
C3130      C3135   1.496       .  S
C3131      C3132   1.411       .  A
C3131      C3136   1.451       .  S
C3132      C3133   1.415       .  A
C3132      C3148   1.451       .  S
C3133      C3134   1.413       .  A
C3134      C3137   1.450       .  S
C3135      C3138   1.411       .  A
C3135      C3142   1.411       .  A
C3136      N3153   1.157       .  T
C3137      N3155   1.157       .  T
C3138      C3139   1.412       .  A
C3138      C3143   1.450       .  S
C3139      C3140   1.413       .  A
C3139      C3145   1.450       .  S
C3140      C3141   1.413       .  A
C3141      C3142   1.409       .  A
C3141      C3144   1.451       .  S
C3142      C3146   1.451       .  S
C3143      N3150   1.157       .  T
C3144      N3151   1.157       .  T
C3145      N3149   1.157       .  T
C3146      N3152   1.157       .  T
C3147      N3156   1.157       .  T
C3148      N3154   1.157       .  T
C3157      C3158   1.410       .  A
C3157      C3162   1.411       .  A
C3157      C3175   1.451       .  S
C3158      C3159   1.409       .  A
C3158      C3163   1.497       .  S
C3159      C3160   1.411       .  A
C3159      C3164   1.451       .  S
C3160      C3161   1.418       .  A
C3160      C3176   1.451       .  S
C3161      C3162   1.417       .  A
C3162      C3165   1.451       .  S
C3163      C3166   1.412       .  A
C3163      C3170   1.410       .  A
C3164      N3181   1.157       .  T
C3165      N3183   1.157       .  T
C3166      C3167   1.411       .  A
C3166      C3171   1.451       .  S
C3167      C3168   1.413       .  A
C3167      C3173   1.450       .  S
C3168      C3169   1.414       .  A
C3169      C3170   1.412       .  A
C3169      C3172   1.450       .  S
C3170      C3174   1.450       .  S
C3171      N3178   1.157       .  T
C3172      N3179   1.157       .  T
C3173      N3177   1.157       .  T
C3174      N3180   1.157       .  T
C3175      N3184   1.157       .  T
C3176      N3182   1.157       .  T
C3185      C3186   1.412       .  A
C3185      C3190   1.415       .  A
C3185      C3203   1.450       .  S
C3186      C3187   1.410       .  A
C3186      C3191   1.502       .  S
C3187      C3188   1.412       .  A
C3187      C3192   1.451       .  S
C3188      C3189   1.416       .  A
C3188      C3204   1.451       .  S
C3189      C3190   1.416       .  A
C3190      C3193   1.450       .  S
C3191      C3194   1.411       .  A
C3191      C3198   1.411       .  A
C3192      N3209   1.157       .  T
C3193      N3211   1.157       .  T
C3194      C3195   1.413       .  A
C3194      C3199   1.450       .  S
C3195      C3196   1.417       .  A
C3195      C3201   1.450       .  S
C3196      C3197   1.416       .  A
C3197      C3198   1.414       .  A
C3197      C3200   1.450       .  S
C3198      C3202   1.450       .  S
C3199      N3206   1.157       .  T
C3200      N3207   1.157       .  T
C3201      N3205   1.157       .  T
C3202      N3208   1.157       .  T
C3203      N3212   1.157       .  T
C3204      N3210   1.157       .  T
C3213      C3214   1.410       .  A
C3213      C3218   1.411       .  A
C3213      C3231   1.451       .  S
C3214      C3215   1.409       .  A
C3214      C3219   1.497       .  S
C3215      C3216   1.412       .  A
C3215      C3220   1.450       .  S
C3216      C3217   1.417       .  A
C3216      C3232   1.451       .  S
C3217      C3218   1.416       .  A
C3218      C3221   1.451       .  S
C3219      C3222   1.409       .  A
C3219      C3226   1.410       .  A
C3220      N3237   1.157       .  T
C3221      N3239   1.157       .  T
C3222      C3223   1.411       .  A
C3222      C3227   1.451       .  S
C3223      C3224   1.418       .  A
C3223      C3229   1.451       .  S
C3224      C3225   1.417       .  A
C3225      C3226   1.413       .  A
C3225      C3228   1.450       .  S
C3226      C3230   1.451       .  S
C3227      N3234   1.157       .  T
C3228      N3235   1.157       .  T
C3229      N3233   1.157       .  T
C3230      N3236   1.157       .  T
C3231      N3240   1.157       .  T
C3232      N3238   1.157       .  T
C3241      C3242   1.408       .  A
C3241      C3246   1.407       .  A
C3241      C3259   1.452       .  S
C3242      C3243   1.409       .  A
C3242      C3247   1.490       .  S
C3243      C3244   1.411       .  A
C3243      C3248   1.450       .  S
C3244      C3245   1.416       .  A
C3244      C3260   1.450       .  S
C3245      C3246   1.417       .  A
C3246      C3249   1.451       .  S
C3247      C3250   1.410       .  A
C3247      C3254   1.410       .  A
C3248      N3265   1.157       .  T
C3249      N3267   1.157       .  T
C3250      C3251   1.408       .  A
C3250      C3255   1.451       .  S
C3251      C3252   1.412       .  A
C3251      C3257   1.451       .  S
C3252      C3253   1.413       .  A
C3253      C3254   1.409       .  A
C3253      C3256   1.451       .  S
C3254      C3258   1.451       .  S
C3255      N3262   1.157       .  T
C3256      N3263   1.157       .  T
C3257      N3261   1.157       .  T
C3258      N3264   1.157       .  T
C3259      N3268   1.157       .  T
C3260      N3266   1.157       .  T
C3269      C3270   1.411       .  A
C3269      C3274   1.411       .  A
C3269      C3287   1.451       .  S
C3270      C3271   1.411       .  A
C3270      C3275   1.499       .  S
C3271      C3272   1.412       .  A
C3271      C3276   1.451       .  S
C3272      C3273   1.416       .  A
C3272      C3288   1.451       .  S
C3273      C3274   1.416       .  A
C3274      C3277   1.451       .  S
C3275      C3278   1.412       .  A
C3275      C3282   1.412       .  A
C3276      N3293   1.157       .  T
C3277      N3295   1.157       .  T
C3278      C3279   1.412       .  A
C3278      C3283   1.451       .  S
C3279      C3280   1.415       .  A
C3279      C3285   1.451       .  S
C3280      C3281   1.414       .  A
C3281      C3282   1.410       .  A
C3281      C3284   1.451       .  S
C3282      C3286   1.451       .  S
C3283      N3290   1.157       .  T
C3284      N3291   1.157       .  T
C3285      N3289   1.157       .  T
C3286      N3292   1.157       .  T
C3287      N3296   1.157       .  T
C3288      N3294   1.157       .  T
C3297      C3298   1.411       .  A
C3297      C3302   1.409       .  A
C3297      C3315   1.451       .  S
C3298      C3299   1.410       .  A
C3298      C3303   1.494       .  S
C3299      C3300   1.411       .  A
C3299      C3304   1.450       .  S
C3300      C3301   1.413       .  A
C3300      C3316   1.451       .  S
C3301      C3302   1.412       .  A
C3302      C3305   1.451       .  S
C3303      C3306   1.410       .  A
C3303      C3310   1.410       .  A
C3304      N3321   1.157       .  T
C3305      N3323   1.157       .  T
C3306      C3307   1.411       .  A
C3306      C3311   1.450       .  S
C3307      C3308   1.414       .  A
C3307      C3313   1.450       .  S
C3308      C3309   1.412       .  A
C3309      C3310   1.410       .  A
C3309      C3312   1.450       .  S
C3310      C3314   1.451       .  S
C3311      N3318   1.157       .  T
C3312      N3319   1.157       .  T
C3313      N3317   1.157       .  T
C3314      N3320   1.157       .  T
C3315      N3324   1.157       .  T
C3316      N3322   1.157       .  T
C3325      C3326   1.411       .  A
C3325      C3330   1.410       .  A
C3325      C3343   1.450       .  S
C3326      C3327   1.410       .  A
C3326      C3331   1.493       .  S
C3327      C3328   1.408       .  A
C3327      C3332   1.450       .  S
C3328      C3329   1.411       .  A
C3328      C3344   1.451       .  S
C3329      C3330   1.411       .  A
C3330      C3333   1.450       .  S
C3331      C3334   1.407       .  A
C3331      C3338   1.409       .  A
C3332      N3349   1.157       .  T
C3333      N3351   1.157       .  T
C3334      C3335   1.411       .  A
C3334      C3339   1.451       .  S
C3335      C3336   1.420       .  A
C3335      C3341   1.451       .  S
C3336      C3337   1.418       .  A
C3337      C3338   1.410       .  A
C3337      C3340   1.450       .  S
C3338      C3342   1.452       .  S
C3339      N3346   1.157       .  T
C3340      N3347   1.157       .  T
C3341      N3345   1.158       .  T
C3342      N3348   1.157       .  T
C3343      N3352   1.157       .  T
C3344      N3350   1.157       .  T
C3353      C3354   1.410       .  A
C3353      C3358   1.410       .  A
C3353      C3371   1.451       .  S
C3354      C3355   1.411       .  A
C3354      C3359   1.495       .  S
C3355      C3356   1.410       .  A
C3355      C3360   1.451       .  S
C3356      C3357   1.412       .  A
C3356      C3372   1.450       .  S
C3357      C3358   1.415       .  A
C3358      C3361   1.451       .  S
C3359      C3362   1.411       .  A
C3359      C3366   1.411       .  A
C3360      N3377   1.157       .  T
C3361      N3379   1.157       .  T
C3362      C3363   1.409       .  A
C3362      C3367   1.451       .  S
C3363      C3364   1.413       .  A
C3363      C3369   1.451       .  S
C3364      C3365   1.412       .  A
C3365      C3366   1.411       .  A
C3365      C3368   1.450       .  S
C3366      C3370   1.450       .  S
C3367      N3374   1.157       .  T
C3368      N3375   1.157       .  T
C3369      N3373   1.157       .  T
C3370      N3376   1.157       .  T
C3371      N3380   1.157       .  T
C3372      N3378   1.157       .  T
C3381      C3382   1.409       .  A
C3381      C3386   1.410       .  A
C3381      C3399   1.451       .  S
C3382      C3383   1.410       .  A
C3382      C3387   1.495       .  S
C3383      C3384   1.412       .  A
C3383      C3388   1.451       .  S
C3384      C3385   1.416       .  A
C3384      C3400   1.450       .  S
C3385      C3386   1.415       .  A
C3386      C3389   1.451       .  S
C3387      C3390   1.410       .  A
C3387      C3394   1.410       .  A
C3388      N3405   1.157       .  T
C3389      N3407   1.157       .  T
C3390      C3391   1.409       .  A
C3390      C3395   1.451       .  S
C3391      C3392   1.415       .  A
C3391      C3397   1.451       .  S
C3392      C3393   1.415       .  A
C3393      C3394   1.413       .  A
C3393      C3396   1.450       .  S
C3394      C3398   1.450       .  S
C3395      N3402   1.157       .  T
C3396      N3403   1.157       .  T
C3397      N3401   1.157       .  T
C3398      N3404   1.157       .  T
C3399      N3408   1.157       .  T
C3400      N3406   1.157       .  T
C3409      C3410   1.410       .  A
C3409      C3414   1.411       .  A
C3409      C3427   1.450       .  S
C3410      C3411   1.410       .  A
C3410      C3415   1.496       .  S
C3411      C3412   1.411       .  A
C3411      C3416   1.451       .  S
C3412      C3413   1.416       .  A
C3412      C3428   1.451       .  S
C3413      C3414   1.414       .  A
C3414      C3417   1.450       .  S
C3415      C3418   1.409       .  A
C3415      C3422   1.409       .  A
C3416      N3433   1.157       .  T
C3417      N3435   1.157       .  T
C3418      C3419   1.411       .  A
C3418      C3423   1.451       .  S
C3419      C3420   1.418       .  A
C3419      C3425   1.450       .  S
C3420      C3421   1.419       .  A
C3421      C3422   1.412       .  A
C3421      C3424   1.451       .  S
C3422      C3426   1.451       .  S
C3423      N3430   1.157       .  T
C3424      N3431   1.157       .  T
C3425      N3429   1.157       .  T
C3426      N3432   1.157       .  T
C3427      N3436   1.157       .  T
C3428      N3434   1.157       .  T
C3437      C3438   1.412       .  A
C3437      C3442   1.412       .  A
C3437      C3455   1.451       .  S
C3438      C3439   1.412       .  A
C3438      C3443   1.500       .  S
C3439      C3440   1.412       .  A
C3439      C3444   1.451       .  S
C3440      C3441   1.415       .  A
C3440      C3456   1.451       .  S
C3441      C3442   1.415       .  A
C3442      C3445   1.451       .  S
C3443      C3446   1.412       .  A
C3443      C3450   1.412       .  A
C3444      N3461   1.157       .  T
C3445      N3463   1.157       .  T
C3446      C3447   1.413       .  A
C3446      C3451   1.450       .  S
C3447      C3448   1.416       .  A
C3447      C3453   1.450       .  S
C3448      C3449   1.415       .  A
C3449      C3450   1.410       .  A
C3449      C3452   1.451       .  S
C3450      C3454   1.451       .  S
C3451      N3458   1.157       .  T
C3452      N3459   1.157       .  T
C3453      N3457   1.157       .  T
C3454      N3460   1.157       .  T
C3455      N3464   1.157       .  T
C3456      N3462   1.157       .  T
C3465      C3466   1.410       .  A
C3465      C3470   1.410       .  A
C3465      C3483   1.451       .  S
C3466      C3467   1.410       .  A
C3466      C3471   1.493       .  S
C3467      C3468   1.409       .  A
C3467      C3472   1.451       .  S
C3468      C3469   1.416       .  A
C3468      C3484   1.451       .  S
C3469      C3470   1.416       .  A
C3470      C3473   1.451       .  S
C3471      C3474   1.410       .  A
C3471      C3478   1.410       .  A
C3472      N3489   1.157       .  T
C3473      N3491   1.157       .  T
C3474      C3475   1.408       .  A
C3474      C3479   1.451       .  S
C3475      C3476   1.414       .  A
C3475      C3481   1.451       .  S
C3476      C3477   1.414       .  A
C3477      C3478   1.410       .  A
C3477      C3480   1.450       .  S
C3478      C3482   1.451       .  S
C3479      N3486   1.157       .  T
C3480      N3487   1.157       .  T
C3481      N3485   1.157       .  T
C3482      N3488   1.157       .  T
C3483      N3492   1.157       .  T
C3484      N3490   1.157       .  T
C3493      C3494   1.409       .  A
C3493      C3498   1.409       .  A
C3493      C3511   1.451       .  S
C3494      C3495   1.410       .  A
C3494      C3499   1.495       .  S
C3495      C3496   1.411       .  A
C3495      C3500   1.451       .  S
C3496      C3497   1.415       .  A
C3496      C3512   1.451       .  S
C3497      C3498   1.417       .  A
C3498      C3501   1.451       .  S
C3499      C3502   1.410       .  A
C3499      C3506   1.409       .  A
C3500      N3517   1.157       .  T
C3501      N3519   1.157       .  T
C3502      C3503   1.412       .  A
C3502      C3507   1.451       .  S
C3503      C3504   1.417       .  A
C3503      C3509   1.451       .  S
C3504      C3505   1.416       .  A
C3505      C3506   1.410       .  A
C3505      C3508   1.451       .  S
C3506      C3510   1.451       .  S
C3507      N3514   1.157       .  T
C3508      N3515   1.157       .  T
C3509      N3513   1.157       .  T
C3510      N3516   1.157       .  T
C3511      N3520   1.157       .  T
C3512      N3518   1.157       .  T
C3521      C3522   1.411       .  A
C3521      C3526   1.410       .  A
C3521      C3539   1.451       .  S
C3522      C3523   1.411       .  A
C3522      C3527   1.496       .  S
C3523      C3524   1.411       .  A
C3523      C3528   1.451       .  S
C3524      C3525   1.414       .  A
C3524      C3540   1.451       .  S
C3525      C3526   1.414       .  A
C3526      C3529   1.450       .  S
C3527      C3530   1.408       .  A
C3527      C3534   1.411       .  A
C3528      N3545   1.157       .  T
C3529      N3547   1.157       .  T
C3530      C3531   1.411       .  A
C3530      C3535   1.451       .  S
C3531      C3532   1.419       .  A
C3531      C3537   1.451       .  S
C3532      C3533   1.417       .  A
C3533      C3534   1.410       .  A
C3533      C3536   1.451       .  S
C3534      C3538   1.452       .  S
C3535      N3542   1.157       .  T
C3536      N3543   1.157       .  T
C3537      N3541   1.157       .  T
C3538      N3544   1.157       .  T
C3539      N3548   1.157       .  T
C3540      N3546   1.157       .  T
C3549      C3550   1.409       .  A
C3549      C3554   1.410       .  A
C3549      C3567   1.451       .  S
C3550      C3551   1.409       .  A
C3550      C3555   1.495       .  S
C3551      C3552   1.410       .  A
C3551      C3556   1.451       .  S
C3552      C3553   1.418       .  A
C3552      C3568   1.451       .  S
C3553      C3554   1.418       .  A
C3554      C3557   1.451       .  S
C3555      C3558   1.411       .  A
C3555      C3562   1.411       .  A
C3556      N3573   1.157       .  T
C3557      N3575   1.157       .  T
C3558      C3559   1.410       .  A
C3558      C3563   1.451       .  S
C3559      C3560   1.412       .  A
C3559      C3565   1.451       .  S
C3560      C3561   1.413       .  A
C3561      C3562   1.410       .  A
C3561      C3564   1.450       .  S
C3562      C3566   1.451       .  S
C3563      N3570   1.157       .  T
C3564      N3571   1.157       .  T
C3565      N3569   1.157       .  T
C3566      N3572   1.157       .  T
C3567      N3576   1.157       .  T
C3568      N3574   1.157       .  T
C3577      C3578   1.410       .  A
C3577      C3582   1.412       .  A
C3577      C3595   1.451       .  S
C3578      C3579   1.409       .  A
C3578      C3583   1.497       .  S
C3579      C3580   1.410       .  A
C3579      C3584   1.451       .  S
C3580      C3581   1.416       .  A
C3580      C3596   1.451       .  S
C3581      C3582   1.417       .  A
C3582      C3585   1.451       .  S
C3583      C3586   1.410       .  A
C3583      C3590   1.409       .  A
C3584      N3601   1.157       .  T
C3585      N3603   1.157       .  T
C3586      C3587   1.413       .  A
C3586      C3591   1.451       .  S
C3587      C3588   1.416       .  A
C3587      C3593   1.450       .  S
C3588      C3589   1.417       .  A
C3589      C3590   1.410       .  A
C3589      C3592   1.451       .  S
C3590      C3594   1.451       .  S
C3591      N3598   1.157       .  T
C3592      N3599   1.157       .  T
C3593      N3597   1.157       .  T
C3594      N3600   1.157       .  T
C3595      N3604   1.157       .  T
C3596      N3602   1.157       .  T
C3605      C3606   1.410       .  A
C3605      C3610   1.412       .  A
C3605      C3623   1.450       .  S
C3606      C3607   1.410       .  A
C3606      C3611   1.496       .  S
C3607      C3608   1.411       .  A
C3607      C3612   1.451       .  S
C3608      C3609   1.414       .  A
C3608      C3624   1.451       .  S
C3609      C3610   1.415       .  A
C3610      C3613   1.451       .  S
C3611      C3614   1.409       .  A
C3611      C3618   1.410       .  A
C3612      N3629   1.157       .  T
C3613      N3631   1.157       .  T
C3614      C3615   1.411       .  A
C3614      C3619   1.451       .  S
C3615      C3616   1.416       .  A
C3615      C3621   1.451       .  S
C3616      C3617   1.416       .  A
C3617      C3618   1.411       .  A
C3617      C3620   1.450       .  S
C3618      C3622   1.451       .  S
C3619      N3626   1.157       .  T
C3620      N3627   1.157       .  T
C3621      N3625   1.157       .  T
C3622      N3628   1.157       .  T
C3623      N3632   1.157       .  T
C3624      N3630   1.157       .  T
C3633      C3634   1.410       .  A
C3633      C3638   1.409       .  A
C3633      C3651   1.452       .  S
C3634      C3635   1.409       .  A
C3634      C3639   1.495       .  S
C3635      C3636   1.412       .  A
C3635      C3640   1.450       .  S
C3636      C3637   1.417       .  A
C3636      C3652   1.451       .  S
C3637      C3638   1.415       .  A
C3638      C3641   1.451       .  S
C3639      C3642   1.410       .  A
C3639      C3646   1.409       .  A
C3640      N3657   1.157       .  T
C3641      N3659   1.157       .  T
C3642      C3643   1.413       .  A
C3642      C3647   1.450       .  S
C3643      C3644   1.416       .  A
C3643      C3649   1.450       .  S
C3644      C3645   1.416       .  A
C3645      C3646   1.408       .  A
C3645      C3648   1.451       .  S
C3646      C3650   1.452       .  S
C3647      N3654   1.157       .  T
C3648      N3655   1.157       .  T
C3649      N3653   1.157       .  T
C3650      N3656   1.157       .  T
C3651      N3660   1.157       .  T
C3652      N3658   1.157       .  T
C3661      C3662   1.410       .  A
C3661      C3666   1.410       .  A
C3661      C3679   1.451       .  S
C3662      C3663   1.409       .  A
C3662      C3667   1.495       .  S
C3663      C3664   1.411       .  A
C3663      C3668   1.450       .  S
C3664      C3665   1.416       .  A
C3664      C3680   1.451       .  S
C3665      C3666   1.415       .  A
C3666      C3669   1.451       .  S
C3667      C3670   1.409       .  A
C3667      C3674   1.409       .  A
C3668      N3685   1.157       .  T
C3669      N3687   1.157       .  T
C3670      C3671   1.411       .  A
C3670      C3675   1.451       .  S
C3671      C3672   1.416       .  A
C3671      C3677   1.451       .  S
C3672      C3673   1.418       .  A
C3673      C3674   1.411       .  A
C3673      C3676   1.450       .  S
C3674      C3678   1.451       .  S
C3675      N3682   1.157       .  T
C3676      N3683   1.157       .  T
C3677      N3681   1.157       .  T
C3678      N3684   1.157       .  T
C3679      N3688   1.157       .  T
C3680      N3686   1.157       .  T
C3689      C3690   1.410       .  A
C3689      C3694   1.411       .  A
C3689      C3707   1.450       .  S
C3690      C3691   1.410       .  A
C3690      C3695   1.493       .  S
C3691      C3692   1.409       .  A
C3691      C3696   1.451       .  S
C3692      C3693   1.413       .  A
C3692      C3708   1.451       .  S
C3693      C3694   1.414       .  A
C3694      C3697   1.451       .  S
C3695      C3698   1.410       .  A
C3695      C3702   1.410       .  A
C3696      N3713   1.157       .  T
C3697      N3715   1.157       .  T
C3698      C3699   1.411       .  A
C3698      C3703   1.450       .  S
C3699      C3700   1.414       .  A
C3699      C3705   1.450       .  S
C3700      C3701   1.414       .  A
C3701      C3702   1.409       .  A
C3701      C3704   1.451       .  S
C3702      C3706   1.451       .  S
C3703      N3710   1.157       .  T
C3704      N3711   1.157       .  T
C3705      N3709   1.157       .  T
C3706      N3712   1.157       .  T
C3707      N3716   1.157       .  T
C3708      N3714   1.157       .  T
C3717      C3718   1.412       .  A
C3717      C3722   1.412       .  A
C3717      C3735   1.451       .  S
C3718      C3719   1.410       .  A
C3718      C3723   1.499       .  S
C3719      C3720   1.412       .  A
C3719      C3724   1.450       .  S
C3720      C3721   1.415       .  A
C3720      C3736   1.451       .  S
C3721      C3722   1.414       .  A
C3722      C3725   1.450       .  S
C3723      C3726   1.411       .  A
C3723      C3730   1.411       .  A
C3724      N3741   1.157       .  T
C3725      N3743   1.157       .  T
C3726      C3727   1.411       .  A
C3726      C3731   1.450       .  S
C3727      C3728   1.415       .  A
C3727      C3733   1.451       .  S
C3728      C3729   1.414       .  A
C3729      C3730   1.413       .  A
C3729      C3732   1.450       .  S
C3730      C3734   1.450       .  S
C3731      N3738   1.157       .  T
C3732      N3739   1.157       .  T
C3733      N3737   1.157       .  T
C3734      N3740   1.157       .  T
C3735      N3744   1.157       .  T
C3736      N3742   1.157       .  T
C3745      C3746   1.409       .  A
C3745      C3750   1.408       .  A
C3745      C3763   1.451       .  S
C3746      C3747   1.409       .  A
C3746      C3751   1.492       .  S
C3747      C3748   1.410       .  A
C3747      C3752   1.451       .  S
C3748      C3749   1.415       .  A
C3748      C3764   1.451       .  S
C3749      C3750   1.414       .  A
C3750      C3753   1.451       .  S
C3751      C3754   1.409       .  A
C3751      C3758   1.408       .  A
C3752      N3769   1.157       .  T
C3753      N3771   1.157       .  T
C3754      C3755   1.408       .  A
C3754      C3759   1.452       .  S
C3755      C3756   1.417       .  A
C3755      C3761   1.451       .  S
C3756      C3757   1.417       .  A
C3757      C3758   1.411       .  A
C3757      C3760   1.450       .  S
C3758      C3762   1.450       .  S
C3759      N3766   1.157       .  T
C3760      N3767   1.157       .  T
C3761      N3765   1.157       .  T
C3762      N3768   1.157       .  T
C3763      N3772   1.157       .  T
C3764      N3770   1.157       .  T
C3773      C3774   1.409       .  A
C3773      C3778   1.410       .  A
C3773      C3791   1.451       .  S
C3774      C3775   1.410       .  A
C3774      C3779   1.493       .  S
C3775      C3776   1.410       .  A
C3775      C3780   1.451       .  S
C3776      C3777   1.416       .  A
C3776      C3792   1.451       .  S
C3777      C3778   1.416       .  A
C3778      C3781   1.451       .  S
C3779      C3782   1.410       .  A
C3779      C3786   1.411       .  A
C3780      N3797   1.157       .  T
C3781      N3799   1.157       .  T
C3782      C3783   1.409       .  A
C3782      C3787   1.451       .  S
C3783      C3784   1.414       .  A
C3783      C3789   1.451       .  S
C3784      C3785   1.413       .  A
C3785      C3786   1.410       .  A
C3785      C3788   1.451       .  S
C3786      C3790   1.451       .  S
C3787      N3794   1.157       .  T
C3788      N3795   1.157       .  T
C3789      N3793   1.157       .  T
C3790      N3796   1.157       .  T
C3791      N3800   1.157       .  T
C3792      N3798   1.157       .  T
C3801      C3802   1.409       .  A
C3801      C3806   1.413       .  A
C3801      C3819   1.450       .  S
C3802      C3803   1.409       .  A
C3802      C3807   1.498       .  S
C3803      C3804   1.411       .  A
C3803      C3808   1.451       .  S
C3804      C3805   1.417       .  A
C3804      C3820   1.451       .  S
C3805      C3806   1.419       .  A
C3806      C3809   1.451       .  S
C3807      C3810   1.410       .  A
C3807      C3814   1.410       .  A
C3808      N3825   1.157       .  T
C3809      N3827   1.157       .  T
C3810      C3811   1.412       .  A
C3810      C3815   1.451       .  S
C3811      C3812   1.417       .  A
C3811      C3817   1.450       .  S
C3812      C3813   1.417       .  A
C3813      C3814   1.412       .  A
C3813      C3816   1.451       .  S
C3814      C3818   1.451       .  S
C3815      N3822   1.157       .  T
C3816      N3823   1.157       .  T
C3817      N3821   1.157       .  T
C3818      N3824   1.157       .  T
C3819      N3828   1.157       .  T
C3820      N3826   1.157       .  T
C3829      C3830   1.411       .  A
C3829      C3834   1.411       .  A
C3829      C3847   1.450       .  S
C3830      C3831   1.409       .  A
C3830      C3835   1.494       .  S
C3831      C3832   1.409       .  A
C3831      C3836   1.451       .  S
C3832      C3833   1.415       .  A
C3832      C3848   1.451       .  S
C3833      C3834   1.414       .  A
C3834      C3837   1.450       .  S
C3835      C3838   1.409       .  A
C3835      C3842   1.410       .  A
C3836      N3853   1.157       .  T
C3837      N3855   1.157       .  T
C3838      C3839   1.409       .  A
C3838      C3843   1.451       .  S
C3839      C3840   1.416       .  A
C3839      C3845   1.451       .  S
C3840      C3841   1.415       .  A
C3841      C3842   1.412       .  A
C3841      C3844   1.450       .  S
C3842      C3846   1.450       .  S
C3843      N3850   1.157       .  T
C3844      N3851   1.157       .  T
C3845      N3849   1.157       .  T
C3846      N3852   1.157       .  T
C3847      N3856   1.157       .  T
C3848      N3854   1.157       .  T
C3857      C3858   1.410       .  A
C3857      C3862   1.412       .  A
C3857      C3875   1.450       .  S
C3858      C3859   1.411       .  A
C3858      C3863   1.497       .  S
C3859      C3860   1.410       .  A
C3859      C3864   1.451       .  S
C3860      C3861   1.415       .  A
C3860      C3876   1.451       .  S
C3861      C3862   1.415       .  A
C3862      C3865   1.450       .  S
C3863      C3866   1.410       .  A
C3863      C3870   1.411       .  A
C3864      N3881   1.157       .  T
C3865      N3883   1.157       .  T
C3866      C3867   1.411       .  A
C3866      C3871   1.451       .  S
C3867      C3868   1.416       .  A
C3867      C3873   1.451       .  S
C3868      C3869   1.415       .  A
C3869      C3870   1.412       .  A
C3869      C3872   1.451       .  S
C3870      C3874   1.450       .  S
C3871      N3878   1.157       .  T
C3872      N3879   1.157       .  T
C3873      N3877   1.157       .  T
C3874      N3880   1.157       .  T
C3875      N3884   1.157       .  T
C3876      N3882   1.157       .  T
C3885      C3886   1.410       .  A
C3885      C3890   1.409       .  A
C3885      C3903   1.451       .  S
C3886      C3887   1.410       .  A
C3886      C3891   1.493       .  S
C3887      C3888   1.409       .  A
C3887      C3892   1.451       .  S
C3888      C3889   1.414       .  A
C3888      C3904   1.451       .  S
C3889      C3890   1.415       .  A
C3890      C3893   1.451       .  S
C3891      C3894   1.410       .  A
C3891      C3898   1.410       .  A
C3892      N3909   1.157       .  T
C3893      N3911   1.157       .  T
C3894      C3895   1.409       .  A
C3894      C3899   1.451       .  S
C3895      C3896   1.414       .  A
C3895      C3901   1.451       .  S
C3896      C3897   1.415       .  A
C3897      C3898   1.409       .  A
C3897      C3900   1.451       .  S
C3898      C3902   1.451       .  S
C3899      N3906   1.157       .  T
C3900      N3907   1.157       .  T
C3901      N3905   1.157       .  T
C3902      N3908   1.157       .  T
C3903      N3912   1.157       .  T
C3904      N3910   1.157       .  T
C3913      C3914   1.410       .  A
C3913      C3918   1.407       .  A
C3913      C3931   1.451       .  S
C3914      C3915   1.408       .  A
C3914      C3919   1.487       .  S
C3915      C3916   1.408       .  A
C3915      C3920   1.450       .  S
C3916      C3917   1.414       .  A
C3916      C3932   1.451       .  S
C3917      C3918   1.413       .  A
C3918      C3921   1.451       .  S
C3919      C3922   1.409       .  A
C3919      C3926   1.409       .  A
C3920      N3937   1.157       .  T
C3921      N3939   1.157       .  T
C3922      C3923   1.409       .  A
C3922      C3927   1.450       .  S
C3923      C3924   1.412       .  A
C3923      C3929   1.450       .  S
C3924      C3925   1.412       .  A
C3925      C3926   1.406       .  A
C3925      C3928   1.451       .  S
C3926      C3930   1.451       .  S
C3927      N3934   1.157       .  T
C3928      N3935   1.157       .  T
C3929      N3933   1.157       .  T
C3930      N3936   1.157       .  T
C3931      N3940   1.157       .  T
C3932      N3938   1.157       .  T
C3941      C3942   1.410       .  A
C3941      C3946   1.411       .  A
C3941      C3959   1.451       .  S
C3942      C3943   1.410       .  A
C3942      C3947   1.497       .  S
C3943      C3944   1.411       .  A
C3943      C3948   1.451       .  S
C3944      C3945   1.417       .  A
C3944      C3960   1.451       .  S
C3945      C3946   1.418       .  A
C3946      C3949   1.451       .  S
C3947      C3950   1.411       .  A
C3947      C3954   1.411       .  A
C3948      N3965   1.157       .  T
C3949      N3967   1.157       .  T
C3950      C3951   1.412       .  A
C3950      C3955   1.450       .  S
C3951      C3952   1.414       .  A
C3951      C3957   1.450       .  S
C3952      C3953   1.414       .  A
C3953      C3954   1.410       .  A
C3953      C3956   1.451       .  S
C3954      C3958   1.451       .  S
C3955      N3962   1.157       .  T
C3956      N3963   1.157       .  T
C3957      N3961   1.157       .  T
C3958      N3964   1.157       .  T
C3959      N3968   1.157       .  T
C3960      N3966   1.157       .  T
C3969      C3970   1.410       .  A
C3969      C3974   1.410       .  A
C3969      C3987   1.451       .  S
C3970      C3971   1.411       .  A
C3970      C3975   1.496       .  S
C3971      C3972   1.412       .  A
C3971      C3976   1.451       .  S
C3972      C3973   1.414       .  A
C3972      C3988   1.450       .  S
C3973      C3974   1.416       .  A
C3974      C3977   1.451       .  S
C3975      C3978   1.411       .  A
C3975      C3982   1.410       .  A
C3976      N3993   1.157       .  T
C3977      N3995   1.157       .  T
C3978      C3979   1.410       .  A
C3978      C3983   1.451       .  S
C3979      C3980   1.414       .  A
C3979      C3985   1.451       .  S
C3980      C3981   1.415       .  A
C3981      C3982   1.410       .  A
C3981      C3984   1.451       .  S
C3982      C3986   1.451       .  S
C3983      N3990   1.157       .  T
C3984      N3991   1.157       .  T
C3985      N3989   1.157       .  T
C3986      N3992   1.157       .  T
C3987      N3996   1.157       .  T
C3988      N3994   1.157       .  T
C3997      C3998   1.409       .  A
C3997      C4002   1.410       .  A
C3997      C4015   1.451       .  S
C3998      C3999   1.409       .  A
C3998      C4003   1.494       .  S
C3999      C4000   1.410       .  A
C3999      C4004   1.452       .  S
C4000      C4001   1.418       .  A
C4000      C4016   1.451       .  S
C4001      C4002   1.416       .  A
C4002      C4005   1.450       .  S
C4003      C4006   1.410       .  A
C4003      C4010   1.410       .  A
C4004      N4021   1.157       .  T
C4005      N4023   1.157       .  T
C4006      C4007   1.410       .  A
C4006      C4011   1.451       .  S
C4007      C4008   1.415       .  A
C4007      C4013   1.451       .  S
C4008      C4009   1.415       .  A
C4009      C4010   1.410       .  A
C4009      C4012   1.451       .  S
C4010      C4014   1.451       .  S
C4011      N4018   1.157       .  T
C4012      N4019   1.157       .  T
C4013      N4017   1.157       .  T
C4014      N4020   1.157       .  T
C4015      N4024   1.157       .  T
C4016      N4022   1.157       .  T
C4025      C4026   1.411       .  A
C4025      C4030   1.409       .  A
C4025      C4043   1.451       .  S
C4026      C4027   1.412       .  A
C4026      C4031   1.497       .  S
C4027      C4028   1.412       .  A
C4027      C4032   1.451       .  S
C4028      C4029   1.414       .  A
C4028      C4044   1.450       .  S
C4029      C4030   1.414       .  A
C4030      C4033   1.451       .  S
C4031      C4034   1.413       .  A
C4031      C4038   1.411       .  A
C4032      N4049   1.157       .  T
C4033      N4051   1.157       .  T
C4034      C4035   1.409       .  A
C4034      C4039   1.451       .  S
C4035      C4036   1.411       .  A
C4035      C4041   1.451       .  S
C4036      C4037   1.413       .  A
C4037      C4038   1.411       .  A
C4037      C4040   1.450       .  S
C4038      C4042   1.450       .  S
C4039      N4046   1.157       .  T
C4040      N4047   1.157       .  T
C4041      N4045   1.157       .  T
C4042      N4048   1.157       .  T
C4043      N4052   1.157       .  T
C4044      N4050   1.157       .  T
C4053      C4054   1.410       .  A
C4053      C4058   1.408       .  A
C4053      C4071   1.451       .  S
C4054      C4055   1.409       .  A
C4054      C4059   1.490       .  S
C4055      C4056   1.409       .  A
C4055      C4060   1.450       .  S
C4056      C4057   1.414       .  A
C4056      C4072   1.451       .  S
C4057      C4058   1.414       .  A
C4058      C4061   1.451       .  S
C4059      C4062   1.409       .  A
C4059      C4066   1.409       .  A
C4060      N4077   1.157       .  T
C4061      N4079   1.157       .  T
C4062      C4063   1.407       .  A
C4062      C4067   1.451       .  S
C4063      C4064   1.414       .  A
C4063      C4069   1.451       .  S
C4064      C4065   1.415       .  A
C4065      C4066   1.410       .  A
C4065      C4068   1.451       .  S
C4066      C4070   1.451       .  S
C4067      N4074   1.157       .  T
C4068      N4075   1.157       .  T
C4069      N4073   1.157       .  T
C4070      N4076   1.157       .  T
C4071      N4080   1.157       .  T
C4072      N4078   1.157       .  T
C4081      C4082   1.412       .  A
C4081      C4086   1.412       .  A
C4081      C4099   1.451       .  S
C4082      C4083   1.410       .  A
C4082      C4087   1.497       .  S
C4083      C4084   1.410       .  A
C4083      C4088   1.451       .  S
C4084      C4085   1.414       .  A
C4084      C4100   1.451       .  S
C4085      C4086   1.414       .  A
C4086      C4089   1.450       .  S
C4087      C4090   1.411       .  A
C4087      C4094   1.411       .  A
C4088      N4105   1.157       .  T
C4089      N4107   1.157       .  T
C4090      C4091   1.411       .  A
C4090      C4095   1.451       .  S
C4091      C4092   1.415       .  A
C4091      C4097   1.451       .  S
C4092      C4093   1.415       .  A
C4093      C4094   1.411       .  A
C4093      C4096   1.451       .  S
C4094      C4098   1.451       .  S
C4095      N4102   1.157       .  T
C4096      N4103   1.157       .  T
C4097      N4101   1.157       .  T
C4098      N4104   1.157       .  T
C4099      N4108   1.157       .  T
C4100      N4106   1.157       .  T
C4109      C4110   1.411       .  A
C4109      C4114   1.411       .  A
C4109      C4127   1.451       .  S
C4110      C4111   1.410       .  A
C4110      C4115   1.498       .  S
C4111      C4112   1.412       .  A
C4111      C4116   1.450       .  S
C4112      C4113   1.416       .  A
C4112      C4128   1.451       .  S
C4113      C4114   1.414       .  A
C4114      C4117   1.451       .  S
C4115      C4118   1.411       .  A
C4115      C4122   1.410       .  A
C4116      N4133   1.157       .  T
C4117      N4135   1.157       .  T
C4118      C4119   1.411       .  A
C4118      C4123   1.451       .  S
C4119      C4120   1.415       .  A
C4119      C4125   1.451       .  S
C4120      C4121   1.416       .  A
C4121      C4122   1.412       .  A
C4121      C4124   1.451       .  S
C4122      C4126   1.451       .  S
C4123      N4130   1.157       .  T
C4124      N4131   1.157       .  T
C4125      N4129   1.157       .  T
C4126      N4132   1.157       .  T
C4127      N4136   1.157       .  T
C4128      N4134   1.157       .  T
C4137      C4138   1.409       .  A
C4137      C4142   1.411       .  A
C4137      C4155   1.451       .  S
C4138      C4139   1.409       .  A
C4138      C4143   1.494       .  S
C4139      C4140   1.410       .  A
C4139      C4144   1.452       .  S
C4140      C4141   1.418       .  A
C4140      C4156   1.451       .  S
C4141      C4142   1.417       .  A
C4142      C4145   1.450       .  S
C4143      C4146   1.410       .  A
C4143      C4150   1.410       .  A
C4144      N4161   1.157       .  T
C4145      N4163   1.157       .  T
C4146      C4147   1.411       .  A
C4146      C4151   1.450       .  S
C4147      C4148   1.414       .  A
C4147      C4153   1.451       .  S
C4148      C4149   1.414       .  A
C4149      C4150   1.409       .  A
C4149      C4152   1.451       .  S
C4150      C4154   1.451       .  S
C4151      N4158   1.157       .  T
C4152      N4159   1.157       .  T
C4153      N4157   1.157       .  T
C4154      N4160   1.157       .  T
C4155      N4164   1.157       .  T
C4156      N4162   1.157       .  T
C4165      C4166   1.409       .  A
C4165      C4170   1.411       .  A
C4165      C4183   1.451       .  S
C4166      C4167   1.410       .  A
C4166      C4171   1.497       .  S
C4167      C4168   1.412       .  A
C4167      C4172   1.451       .  S
C4168      C4169   1.417       .  A
C4168      C4184   1.450       .  S
C4169      C4170   1.416       .  A
C4170      C4173   1.451       .  S
C4171      C4174   1.409       .  A
C4171      C4178   1.408       .  A
C4172      N4189   1.157       .  T
C4173      N4191   1.157       .  T
C4174      C4175   1.414       .  A
C4174      C4179   1.450       .  S
C4175      C4176   1.420       .  A
C4175      C4181   1.450       .  S
C4176      C4177   1.419       .  A
C4177      C4178   1.409       .  A
C4177      C4180   1.451       .  S
C4178      C4182   1.452       .  S
C4179      N4186   1.157       .  T
C4180      N4187   1.157       .  T
C4181      N4185   1.157       .  T
C4182      N4188   1.157       .  T
C4183      N4192   1.157       .  T
C4184      N4190   1.157       .  T
C4193      C4194   1.411       .  A
C4193      C4198   1.411       .  A
C4193      C4211   1.451       .  S
C4194      C4195   1.411       .  A
C4194      C4199   1.498       .  S
C4195      C4196   1.413       .  A
C4195      C4200   1.450       .  S
C4196      C4197   1.414       .  A
C4196      C4212   1.450       .  S
C4197      C4198   1.414       .  A
C4198      C4201   1.451       .  S
C4199      C4202   1.411       .  A
C4199      C4206   1.411       .  A
C4200      N4217   1.157       .  T
C4201      N4219   1.157       .  T
C4202      C4203   1.413       .  A
C4202      C4207   1.450       .  S
C4203      C4204   1.413       .  A
C4203      C4209   1.450       .  S
C4204      C4205   1.414       .  A
C4205      C4206   1.411       .  A
C4205      C4208   1.450       .  S
C4206      C4210   1.451       .  S
C4207      N4214   1.157       .  T
C4208      N4215   1.157       .  T
C4209      N4213   1.157       .  T
C4210      N4216   1.157       .  T
C4211      N4220   1.157       .  T
C4212      N4218   1.157       .  T
C4221      C4222   1.410       .  A
C4221      C4226   1.411       .  A
C4221      C4239   1.451       .  S
C4222      C4223   1.410       .  A
C4222      C4227   1.498       .  S
C4223      C4224   1.413       .  A
C4223      C4228   1.450       .  S
C4224      C4225   1.416       .  A
C4224      C4240   1.450       .  S
C4225      C4226   1.418       .  A
C4226      C4229   1.451       .  S
C4227      C4230   1.411       .  A
C4227      C4234   1.412       .  A
C4228      N4245   1.157       .  T
C4229      N4247   1.157       .  T
C4230      C4231   1.410       .  A
C4230      C4235   1.451       .  S
C4231      C4232   1.414       .  A
C4231      C4237   1.451       .  S
C4232      C4233   1.414       .  A
C4233      C4234   1.412       .  A
C4233      C4236   1.451       .  S
C4234      C4238   1.450       .  S
C4235      N4242   1.157       .  T
C4236      N4243   1.157       .  T
C4237      N4241   1.157       .  T
C4238      N4244   1.157       .  T
C4239      N4248   1.157       .  T
C4240      N4246   1.157       .  T
C4249      C4250   1.410       .  A
C4249      C4254   1.412       .  A
C4249      C4267   1.450       .  S
C4250      C4251   1.410       .  A
C4250      C4255   1.498       .  S
C4251      C4252   1.412       .  A
C4251      C4256   1.451       .  S
C4252      C4253   1.417       .  A
C4252      C4268   1.451       .  S
C4253      C4254   1.416       .  A
C4254      C4257   1.450       .  S
C4255      C4258   1.411       .  A
C4255      C4262   1.410       .  A
C4256      N4273   1.157       .  T
C4257      N4275   1.157       .  T
C4258      C4259   1.413       .  A
C4258      C4263   1.451       .  S
C4259      C4260   1.414       .  A
C4259      C4265   1.450       .  S
C4260      C4261   1.415       .  A
C4261      C4262   1.411       .  A
C4261      C4264   1.451       .  S
C4262      C4266   1.450       .  S
C4263      N4270   1.157       .  T
C4264      N4271   1.157       .  T
C4265      N4269   1.157       .  T
C4266      N4272   1.157       .  T
C4267      N4276   1.157       .  T
C4268      N4274   1.157       .  T
C4277      C4278   1.409       .  A
C4277      C4282   1.411       .  A
C4277      C4295   1.451       .  S
C4278      C4279   1.410       .  A
C4278      C4283   1.495       .  S
C4279      C4280   1.410       .  A
C4279      C4284   1.451       .  S
C4280      C4281   1.416       .  A
C4280      C4296   1.451       .  S
C4281      C4282   1.417       .  A
C4282      C4285   1.451       .  S
C4283      C4286   1.410       .  A
C4283      C4290   1.410       .  A
C4284      N4301   1.157       .  T
C4285      N4303   1.157       .  T
C4286      C4287   1.409       .  A
C4286      C4291   1.451       .  S
C4287      C4288   1.415       .  A
C4287      C4293   1.451       .  S
C4288      C4289   1.415       .  A
C4289      C4290   1.411       .  A
C4289      C4292   1.451       .  S
C4290      C4294   1.451       .  S
C4291      N4298   1.157       .  T
C4292      N4299   1.157       .  T
C4293      N4297   1.157       .  T
C4294      N4300   1.157       .  T
C4295      N4304   1.157       .  T
C4296      N4302   1.157       .  T
C4305      C4306   1.410       .  A
C4305      C4310   1.408       .  A
C4305      C4323   1.452       .  S
C4306      C4307   1.409       .  A
C4306      C4311   1.491       .  S
C4307      C4308   1.409       .  A
C4307      C4312   1.451       .  S
C4308      C4309   1.416       .  A
C4308      C4324   1.450       .  S
C4309      C4310   1.415       .  A
C4310      C4313   1.451       .  S
C4311      C4314   1.411       .  A
C4311      C4318   1.409       .  A
C4312      N4329   1.157       .  T
C4313      N4331   1.157       .  T
C4314      C4315   1.410       .  A
C4314      C4319   1.451       .  S
C4315      C4316   1.414       .  A
C4315      C4321   1.451       .  S
C4316      C4317   1.415       .  A
C4317      C4318   1.407       .  A
C4317      C4320   1.451       .  S
C4318      C4322   1.451       .  S
C4319      N4326   1.157       .  T
C4320      N4327   1.157       .  T
C4321      N4325   1.157       .  T
C4322      N4328   1.157       .  T
C4323      N4332   1.157       .  T
C4324      N4330   1.157       .  T
C4333      C4334   1.410       .  A
C4333      C4338   1.413       .  A
C4333      C4351   1.451       .  S
C4334      C4335   1.409       .  A
C4334      C4339   1.498       .  S
C4335      C4336   1.411       .  A
C4335      C4340   1.451       .  S
C4336      C4337   1.417       .  A
C4336      C4352   1.451       .  S
C4337      C4338   1.419       .  A
C4338      C4341   1.450       .  S
C4339      C4342   1.411       .  A
C4339      C4346   1.410       .  A
C4340      N4357   1.157       .  T
C4341      N4359   1.157       .  T
C4342      C4343   1.413       .  A
C4342      C4347   1.451       .  S
C4343      C4344   1.415       .  A
C4343      C4349   1.450       .  S
C4344      C4345   1.416       .  A
C4345      C4346   1.411       .  A
C4345      C4348   1.451       .  S
C4346      C4350   1.451       .  S
C4347      N4354   1.157       .  T
C4348      N4355   1.157       .  T
C4349      N4353   1.157       .  T
C4350      N4356   1.157       .  T
C4351      N4360   1.157       .  T
C4352      N4358   1.157       .  T
C4361      C4362   1.409       .  A
C4361      C4366   1.409       .  A
C4361      C4379   1.451       .  S
C4362      C4363   1.408       .  A
C4362      C4367   1.490       .  S
C4363      C4364   1.409       .  A
C4363      C4368   1.451       .  S
C4364      C4365   1.415       .  A
C4364      C4380   1.451       .  S
C4365      C4366   1.416       .  A
C4366      C4369   1.450       .  S
C4367      C4370   1.410       .  A
C4367      C4374   1.410       .  A
C4368      N4385   1.157       .  T
C4369      N4387   1.157       .  T
C4370      C4371   1.409       .  A
C4370      C4375   1.450       .  S
C4371      C4372   1.412       .  A
C4371      C4377   1.450       .  S
C4372      C4373   1.413       .  A
C4373      C4374   1.407       .  A
C4373      C4376   1.451       .  S
C4374      C4378   1.451       .  S
C4375      N4382   1.157       .  T
C4376      N4383   1.157       .  T
C4377      N4381   1.157       .  T
C4378      N4384   1.157       .  T
C4379      N4388   1.157       .  T
C4380      N4386   1.157       .  T
C4389      C4390   1.411       .  A
C4389      C4394   1.412       .  A
C4389      C4407   1.451       .  S
C4390      C4391   1.411       .  A
C4390      C4395   1.501       .  S
C4391      C4392   1.413       .  A
C4391      C4396   1.450       .  S
C4392      C4393   1.416       .  A
C4392      C4408   1.451       .  S
C4393      C4394   1.415       .  A
C4394      C4397   1.450       .  S
C4395      C4398   1.411       .  A
C4395      C4402   1.411       .  A
C4396      N4413   1.157       .  T
C4397      N4415   1.157       .  T
C4398      C4399   1.412       .  A
C4398      C4403   1.450       .  S
C4399      C4400   1.415       .  A
C4399      C4405   1.451       .  S
C4400      C4401   1.416       .  A
C4401      C4402   1.414       .  A
C4401      C4404   1.450       .  S
C4402      C4406   1.450       .  S
C4403      N4410   1.157       .  T
C4404      N4411   1.157       .  T
C4405      N4409   1.157       .  T
C4406      N4412   1.157       .  T
C4407      N4416   1.157       .  T
C4408      N4414   1.157       .  T
C4417      C4418   1.410       .  A
C4417      C4422   1.410       .  A
C4417      C4435   1.450       .  S
C4418      C4419   1.411       .  A
C4418      C4423   1.496       .  S
C4419      C4420   1.412       .  A
C4419      C4424   1.451       .  S
C4420      C4421   1.414       .  A
C4420      C4436   1.451       .  S
C4421      C4422   1.414       .  A
C4422      C4425   1.451       .  S
C4423      C4426   1.410       .  A
C4423      C4430   1.410       .  A
C4424      N4441   1.157       .  T
C4425      N4443   1.157       .  T
C4426      C4427   1.412       .  A
C4426      C4431   1.450       .  S
C4427      C4428   1.416       .  A
C4427      C4433   1.451       .  S
C4428      C4429   1.415       .  A
C4429      C4430   1.410       .  A
C4429      C4432   1.451       .  S
C4430      C4434   1.451       .  S
C4431      N4438   1.157       .  T
C4432      N4439   1.157       .  T
C4433      N4437   1.157       .  T
C4434      N4440   1.157       .  T
C4435      N4444   1.157       .  T
C4436      N4442   1.157       .  T
C4445      C4446   1.410       .  A
C4445      C4450   1.411       .  A
C4445      C4463   1.451       .  S
C4446      C4447   1.410       .  A
C4446      C4451   1.498       .  S
C4447      C4448   1.411       .  A
C4447      C4452   1.451       .  S
C4448      C4449   1.416       .  A
C4448      C4464   1.451       .  S
C4449      C4450   1.417       .  A
C4450      C4453   1.451       .  S
C4451      C4454   1.410       .  A
C4451      C4458   1.411       .  A
C4452      N4469   1.157       .  T
C4453      N4471   1.157       .  T
C4454      C4455   1.412       .  A
C4454      C4459   1.451       .  S
C4455      C4456   1.415       .  A
C4455      C4461   1.450       .  S
C4456      C4457   1.415       .  A
C4457      C4458   1.412       .  A
C4457      C4460   1.450       .  S
C4458      C4462   1.451       .  S
C4459      N4466   1.157       .  T
C4460      N4467   1.157       .  T
C4461      N4465   1.157       .  T
C4462      N4468   1.157       .  T
C4463      N4472   1.157       .  T
C4464      N4470   1.157       .  T
C4473      C4474   1.410       .  A
C4473      C4478   1.413       .  A
C4473      C4491   1.450       .  S
C4474      C4475   1.410       .  A
C4474      C4479   1.493       .  S
C4475      C4476   1.407       .  A
C4475      C4480   1.451       .  S
C4476      C4477   1.413       .  A
C4476      C4492   1.451       .  S
C4477      C4478   1.415       .  A
C4478      C4481   1.450       .  S
C4479      C4482   1.410       .  A
C4479      C4486   1.409       .  A
C4480      N4497   1.157       .  T
C4481      N4499   1.157       .  T
C4482      C4483   1.408       .  A
C4482      C4487   1.452       .  S
C4483      C4484   1.415       .  A
C4483      C4489   1.451       .  S
C4484      C4485   1.415       .  A
C4485      C4486   1.411       .  A
C4485      C4488   1.450       .  S
C4486      C4490   1.450       .  S
C4487      N4494   1.157       .  T
C4488      N4495   1.157       .  T
C4489      N4493   1.157       .  T
C4490      N4496   1.157       .  T
C4491      N4500   1.157       .  T
C4492      N4498   1.157       .  T
C4501      C4502   1.411       .  A
C4501      C4506   1.413       .  A
C4501      C4519   1.450       .  S
C4502      C4503   1.410       .  A
C4502      C4507   1.498       .  S
C4503      C4504   1.410       .  A
C4503      C4508   1.451       .  S
C4504      C4505   1.416       .  A
C4504      C4520   1.451       .  S
C4505      C4506   1.415       .  A
C4506      C4509   1.450       .  S
C4507      C4510   1.410       .  A
C4507      C4514   1.410       .  A
C4508      N4525   1.157       .  T
C4509      N4527   1.157       .  T
C4510      C4511   1.412       .  A
C4510      C4515   1.451       .  S
C4511      C4512   1.416       .  A
C4511      C4517   1.450       .  S
C4512      C4513   1.417       .  A
C4513      C4514   1.413       .  A
C4513      C4516   1.450       .  S
C4514      C4518   1.451       .  S
C4515      N4522   1.157       .  T
C4516      N4523   1.157       .  T
C4517      N4521   1.157       .  T
C4518      N4524   1.157       .  T
C4519      N4528   1.157       .  T
C4520      N4526   1.157       .  T
C4529      C4530   1.410       .  A
C4529      C4534   1.412       .  A
C4529      C4547   1.450       .  S
C4530      C4531   1.410       .  A
C4530      C4535   1.498       .  S
C4531      C4532   1.411       .  A
C4531      C4536   1.451       .  S
C4532      C4533   1.417       .  A
C4532      C4548   1.451       .  S
C4533      C4534   1.417       .  A
C4534      C4537   1.451       .  S
C4535      C4538   1.409       .  A
C4535      C4542   1.410       .  A
C4536      N4553   1.157       .  T
C4537      N4555   1.157       .  T
C4538      C4539   1.412       .  A
C4538      C4543   1.451       .  S
C4539      C4540   1.417       .  A
C4539      C4545   1.450       .  S
C4540      C4541   1.415       .  A
C4541      C4542   1.412       .  A
C4541      C4544   1.451       .  S
C4542      C4546   1.450       .  S
C4543      N4550   1.157       .  T
C4544      N4551   1.157       .  T
C4545      N4549   1.157       .  T
C4546      N4552   1.157       .  T
C4547      N4556   1.157       .  T
C4548      N4554   1.157       .  T
C4557      C4558   1.410       .  A
C4557      C4562   1.410       .  A
C4557      C4575   1.451       .  S
C4558      C4559   1.410       .  A
C4558      C4563   1.495       .  S
C4559      C4560   1.412       .  A
C4559      C4564   1.450       .  S
C4560      C4561   1.414       .  A
C4560      C4576   1.450       .  S
C4561      C4562   1.415       .  A
C4562      C4565   1.451       .  S
C4563      C4566   1.410       .  A
C4563      C4570   1.411       .  A
C4564      N4581   1.157       .  T
C4565      N4583   1.157       .  T
C4566      C4567   1.409       .  A
C4566      C4571   1.451       .  S
C4567      C4568   1.414       .  A
C4567      C4573   1.451       .  S
C4568      C4569   1.413       .  A
C4569      C4570   1.411       .  A
C4569      C4572   1.451       .  S
C4570      C4574   1.450       .  S
C4571      N4578   1.157       .  T
C4572      N4579   1.157       .  T
C4573      N4577   1.157       .  T
C4574      N4580   1.157       .  T
C4575      N4584   1.157       .  T
C4576      N4582   1.157       .  T
C4585      C4586   1.409       .  A
C4585      C4590   1.410       .  A
C4585      C4603   1.451       .  S
C4586      C4587   1.409       .  A
C4586      C4591   1.493       .  S
C4587      C4588   1.411       .  A
C4587      C4592   1.451       .  S
C4588      C4589   1.417       .  A
C4588      C4604   1.450       .  S
C4589      C4590   1.417       .  A
C4590      C4593   1.451       .  S
C4591      C4594   1.411       .  A
C4591      C4598   1.410       .  A
C4592      N4609   1.157       .  T
C4593      N4611   1.157       .  T
C4594      C4595   1.409       .  A
C4594      C4599   1.451       .  S
C4595      C4596   1.413       .  A
C4595      C4601   1.451       .  S
C4596      C4597   1.413       .  A
C4597      C4598   1.411       .  A
C4597      C4600   1.450       .  S
C4598      C4602   1.450       .  S
C4599      N4606   1.157       .  T
C4600      N4607   1.157       .  T
C4601      N4605   1.157       .  T
C4602      N4608   1.157       .  T
C4603      N4612   1.157       .  T
C4604      N4610   1.157       .  T
C4613      C4614   1.410       .  A
C4613      C4618   1.411       .  A
C4613      C4631   1.451       .  S
C4614      C4615   1.409       .  A
C4614      C4619   1.495       .  S
C4615      C4616   1.411       .  A
C4615      C4620   1.451       .  S
C4616      C4617   1.416       .  A
C4616      C4632   1.451       .  S
C4617      C4618   1.415       .  A
C4618      C4621   1.450       .  S
C4619      C4622   1.410       .  A
C4619      C4626   1.410       .  A
C4620      N4637   1.157       .  T
C4621      N4639   1.157       .  T
C4622      C4623   1.411       .  A
C4622      C4627   1.450       .  S
C4623      C4624   1.415       .  A
C4623      C4629   1.451       .  S
C4624      C4625   1.416       .  A
C4625      C4626   1.410       .  A
C4625      C4628   1.451       .  S
C4626      C4630   1.451       .  S
C4627      N4634   1.157       .  T
C4628      N4635   1.157       .  T
C4629      N4633   1.157       .  T
C4630      N4636   1.157       .  T
C4631      N4640   1.157       .  T
C4632      N4638   1.157       .  T
C4641      C4642   1.411       .  A
C4641      C4646   1.412       .  A
C4641      C4659   1.451       .  S
C4642      C4643   1.411       .  A
C4642      C4647   1.499       .  S
C4643      C4644   1.412       .  A
C4643      C4648   1.451       .  S
C4644      C4645   1.415       .  A
C4644      C4660   1.450       .  S
C4645      C4646   1.416       .  A
C4646      C4649   1.451       .  S
C4647      C4650   1.411       .  A
C4647      C4654   1.412       .  A
C4648      N4665   1.157       .  T
C4649      N4667   1.157       .  T
C4650      C4651   1.411       .  A
C4650      C4655   1.450       .  S
C4651      C4652   1.412       .  A
C4651      C4657   1.451       .  S
C4652      C4653   1.413       .  A
C4653      C4654   1.412       .  A
C4653      C4656   1.450       .  S
C4654      C4658   1.450       .  S
C4655      N4662   1.157       .  T
C4656      N4663   1.157       .  T
C4657      N4661   1.157       .  T
C4658      N4664   1.157       .  T
C4659      N4668   1.157       .  T
C4660      N4666   1.157       .  T
C4669      C4670   1.410       .  A
C4669      C4674   1.411       .  A
C4669      C4687   1.451       .  S
C4670      C4671   1.410       .  A
C4670      C4675   1.495       .  S
C4671      C4672   1.410       .  A
C4671      C4676   1.451       .  S
C4672      C4673   1.415       .  A
C4672      C4688   1.451       .  S
C4673      C4674   1.416       .  A
C4674      C4677   1.451       .  S
C4675      C4678   1.409       .  A
C4675      C4682   1.410       .  A
C4676      N4693   1.157       .  T
C4677      N4695   1.157       .  T
C4678      C4679   1.409       .  A
C4678      C4683   1.451       .  S
C4679      C4680   1.416       .  A
C4679      C4685   1.451       .  S
C4680      C4681   1.416       .  A
C4681      C4682   1.412       .  A
C4681      C4684   1.450       .  S
C4682      C4686   1.451       .  S
C4683      N4690   1.157       .  T
C4684      N4691   1.157       .  T
C4685      N4689   1.157       .  T
C4686      N4692   1.157       .  T
C4687      N4696   1.157       .  T
C4688      N4694   1.157       .  T
C4697      C4698   1.412       .  A
C4697      C4702   1.412       .  A
C4697      C4715   1.451       .  S
C4698      C4699   1.410       .  A
C4698      C4703   1.499       .  S
C4699      C4700   1.412       .  A
C4699      C4704   1.450       .  S
C4700      C4701   1.414       .  A
C4700      C4716   1.450       .  S
C4701      C4702   1.413       .  A
C4702      C4705   1.450       .  S
C4703      C4706   1.412       .  A
C4703      C4710   1.412       .  A
C4704      N4721   1.157       .  T
C4705      N4723   1.157       .  T
C4706      C4707   1.412       .  A
C4706      C4711   1.450       .  S
C4707      C4708   1.412       .  A
C4707      C4713   1.450       .  S
C4708      C4709   1.412       .  A
C4709      C4710   1.411       .  A
C4709      C4712   1.451       .  S
C4710      C4714   1.450       .  S
C4711      N4718   1.157       .  T
C4712      N4719   1.157       .  T
C4713      N4717   1.157       .  T
C4714      N4720   1.157       .  T
C4715      N4724   1.157       .  T
C4716      N4722   1.157       .  T
C4725      C4726   1.411       .  A
C4725      C4730   1.412       .  A
C4725      C4743   1.450       .  S
C4726      C4727   1.411       .  A
C4726      C4731   1.497       .  S
C4727      C4728   1.410       .  A
C4727      C4732   1.450       .  S
C4728      C4729   1.413       .  A
C4728      C4744   1.451       .  S
C4729      C4730   1.415       .  A
C4730      C4733   1.450       .  S
C4731      C4734   1.410       .  A
C4731      C4738   1.410       .  A
C4732      N4749   1.157       .  T
C4733      N4751   1.157       .  T
C4734      C4735   1.409       .  A
C4734      C4739   1.452       .  S
C4735      C4736   1.415       .  A
C4735      C4741   1.451       .  S
C4736      C4737   1.416       .  A
C4737      C4738   1.414       .  A
C4737      C4740   1.450       .  S
C4738      C4742   1.450       .  S
C4739      N4746   1.157       .  T
C4740      N4747   1.157       .  T
C4741      N4745   1.157       .  T
C4742      N4748   1.157       .  T
C4743      N4752   1.157       .  T
C4744      N4750   1.157       .  T
