geometry optimzed in LAMMPS
_audit_creation_date              2020-11-30 
_audit_creation_method            'lammps2cif' 
_symmetry_space_group_name_H-M    'P1' 
_symmetry_Int_Tables_number       1 
_symmetry_cell_setting            triclinic 
loop_ 
_symmetry_equiv_pos_as_xyz 
  x,y,z 
_cell_length_a                    32.66574506 
_cell_length_b                    32.652163281743476 
_cell_length_c                    32.629424168853674 
_cell_angle_alpha                 89.91347773625738 
_cell_angle_beta                  90.04596574503253 
_cell_angle_gamma                 89.92113507681654 
loop_ 
_atom_site_label 
_atom_site_type_symbol 
_atom_site_fract_x 
_atom_site_fract_y 
_atom_site_fract_z 
_atom_site_charge 
N1          N  0.98406159  0.26218243  0.26227261    -0.03100
C2          C  0.97628412  0.22141579  0.26780389    -0.00500
C3          C  0.97422124  0.20106749  0.23078513    -0.23400
C4          C  0.98099787  0.22932296  0.20111237    -0.23600
C5          C  0.98750775  0.26614064  0.22073603    -0.00600
H6          H  0.97002733  0.16854056  0.22597745     0.13200
H7          H  0.98163265  0.22359668  0.16844370     0.13200
O8          O  0.99965850  0.42695155  0.37579836    -0.79700
O9          O  0.00115158  0.42304955  0.61127864    -0.81300
O10         O  0.06489155  0.37414796  0.49006159    -0.78300
O11         O  0.93597517  0.37597580  0.49530825    -0.76700
O12         O  0.88480339  0.42404469  0.49597840    -0.78500
O13         O  0.11576232  0.42190765  0.49706922    -0.79400
O14         O  0.00451272  0.37479660  0.56057017    -0.80700
O15         O  0.99654164  0.37697839  0.42482184    -0.81000
Eu16       Eu  0.00072983  0.41039792  0.49331647     2.39200
O17         O  0.95912458  0.45107364  0.53577061    -0.88500
O18         O  0.04342794  0.45198378  0.45329289    -0.92100
C19         C  0.99706240  0.38899734  0.38697042     1.02600
C20         C  0.00387871  0.38555695  0.59873861     1.02400
C21         C  0.10254000  0.38459824  0.49371515     1.02300
C22         C  0.89823193  0.38661738  0.49587688     1.00200
H23         H  0.05918761  0.43275667  0.55290491     0.29900
O24         O  0.04259512  0.45051205  0.53600172    -1.00900
H25         H  0.94143037  0.43567671  0.43497323     0.30000
O26         O  0.95863099  0.45227817  0.45238548    -1.03500
O27         O  0.00226278  0.55849318  0.61445447    -0.80700
O28         O  0.00453244  0.56199758  0.37856437    -0.80200
O29         O  0.11751220  0.48932320  0.56527571    -0.78700
O30         O  0.88565120  0.49249941  0.56459031    -0.82000
O31         O  0.88527142  0.49765317  0.42513572    -0.79900
O32         O  0.11823102  0.48719131  0.42764300    -0.78500
O33         O  0.06682437  0.61055277  0.49794953    -0.80000
O34         O  0.93732662  0.61131529  0.49339102    -0.82000
O35         O  0.11742982  0.56186261  0.49854964    -0.78700
O36         O  0.88654174  0.56290372  0.49066899    -0.81400
O37         O  0.06625049  0.48854247  0.61305598    -0.77100
O38         O  0.06786593  0.49038036  0.37864027    -0.77100
O39         O  0.93620926  0.49752469  0.37670878    -0.76800
O40         O  0.93639010  0.49198518  0.61319962    -0.80300
O41         O  0.99961112  0.60797382  0.56486207    -0.79700
O42         O  0.00700285  0.61043419  0.42909118    -0.78000
Eu43       Eu  0.00118423  0.49161831  0.57804882     2.39800
Eu44       Eu  0.00165704  0.49381241  0.41204360     2.39600
Eu45       Eu  0.08575437  0.49210456  0.49615545     2.38400
Eu46       Eu  0.91692889  0.49323683  0.49484672     2.39900
Eu47       Eu  0.00210046  0.57518305  0.49645694     2.39800
O48         O  0.96022122  0.53459700  0.45443970    -0.92400
O49         O  0.04392680  0.53358944  0.53804261    -0.91300
C50         C  0.00020233  0.59633771  0.60278152     1.02700
C51         C  0.00719205  0.59951715  0.39095894     1.01400
C52         C  0.10412418  0.48771220  0.60263272     1.00800
C53         C  0.89870289  0.49228231  0.60219469     1.02900
C54         C  0.89845398  0.49924592  0.38761535     1.01800
C55         C  0.10539044  0.48717971  0.39005229     1.00600
C56         C  0.10452629  0.59954623  0.49871282     1.00700
C57         C  0.89972892  0.60033423  0.49021228     1.03300
H58         H  0.06145886  0.55101156  0.43780062     0.30700
O59         O  0.04402560  0.53402492  0.45455626    -1.04600
H60         H  0.94238494  0.55109088  0.55419980     0.32700
O61         O  0.95921244  0.53390319  0.53710943    -1.07200
N62         N  0.97740501  0.72517671  0.72326565    -0.03100
C63         C  0.97512700  0.72127501  0.76483852    -0.00500
C64         C  0.96237689  0.75740895  0.78277831    -0.23400
C65         C  0.95711136  0.78501840  0.75190459    -0.23600
C66         C  0.96693987  0.76499604  0.71606377    -0.00600
H67         H  0.95868792  0.76337464  0.81519468     0.13200
H68         H  0.94970749  0.81715323  0.75540601     0.13200
N69         N  0.02891320  0.26024625  0.72251622    -0.03100
C70         C  0.04108068  0.22074929  0.71617355    -0.00500
C71         C  0.04885493  0.20114908  0.75284006    -0.23400
C72         C  0.04067789  0.22866135  0.78309645    -0.23600
C73         C  0.02819918  0.26451389  0.76420093    -0.00600
H74         H  0.05656783  0.16918011  0.75720744     0.13200
H75         H  0.04241389  0.22274072  0.81570327     0.13200
N76         N  0.03583568  0.72271163  0.26557861    -0.03100
C77         C  0.03741769  0.71624339  0.22416396    -0.00500
C78         C  0.05201324  0.75043880  0.20404444    -0.23400
C79         C  0.05877255  0.77950284  0.23297644    -0.23600
C80         C  0.04841336  0.76241468  0.27032158    -0.00600
H81         H  0.05530656  0.75449183  0.17127330     0.13200
H82         H  0.06720745  0.81096666  0.22686435     0.13200
O83         O  0.99677354  0.06245783  0.37727480    -0.79700
O84         O  0.01051982  0.06011545  0.60912693    -0.81300
O85         O  0.93575663  0.10980062  0.49214359    -0.78300
O86         O  0.07122984  0.10959970  0.49377856    -0.76700
O87         O  0.12066814  0.05996948  0.49041278    -0.78500
O88         O  0.88675154  0.06007030  0.48794550    -0.79400
O89         O  0.00667385  0.10937903  0.55910248    -0.80700
O90         O  0.00124670  0.11056189  0.42826475    -0.81000
Eu91       Eu  0.00354408  0.07528147  0.49342594     2.39200
O92         O  0.04548850  0.03294677  0.53370126    -0.88500
O93         O  0.96283139  0.03381472  0.45133985    -0.92100
C94         C  0.99730238  0.09977381  0.39066090     1.02600
C95         C  0.01063354  0.09773331  0.59646978     1.02400
C96         C  0.89808079  0.09802532  0.48890201     1.02300
C97         C  0.10901833  0.09783678  0.49193563     1.00200
H98         H  0.94500282  0.05142937  0.55265822     0.29900
O99         O  0.96200562  0.03422253  0.53562416    -1.00900
H100        H  0.06113975  0.05255166  0.43389759     0.30000
O101        O  0.04456399  0.03456535  0.45046130    -1.03500
O102        O  0.00090806  0.92293350  0.60783883    -0.80700
O103        O  0.01232939  0.92450392  0.37599628    -0.80200
O104        O  0.88732922  0.99298727  0.55857748    -0.78700
O105        O  0.12170964  0.99142611  0.55611427    -0.82000
O106        O  0.12090037  0.99491729  0.42511135    -0.79900
O107        O  0.88588691  0.99322852  0.42810054    -0.78500
O108        O  0.93711026  0.87599158  0.48702386    -0.80000
O109        O  0.07214105  0.87448804  0.49462420    -0.82000
O110        O  0.88716709  0.92498769  0.49125745    -0.78700
O111        O  0.12113220  0.92419449  0.48958712    -0.81400
O112        O  0.93588336  0.99129648  0.60930554    -0.77100
O113        O  0.93385807  0.99294871  0.37672672    -0.77100
O114        O  0.07179451  0.00158676  0.37524048    -0.76800
O115        O  0.07358201  0.99119494  0.60725780    -0.80300
O116        O  0.00087584  0.87455944  0.55688248    -0.79700
O117        O  0.01005346  0.87537270  0.42628532    -0.78000
Eu118      Eu  0.00442402  0.99184131  0.57630314     2.39800
Eu119      Eu  0.00352694  0.99328685  0.40780390     2.39600
Eu120      Eu  0.92150398  0.99250633  0.49277672     2.38400
Eu121      Eu  0.08664089  0.99210780  0.49095547     2.39900
Eu122      Eu  0.00467631  0.90969846  0.49159312     2.39800
O123        O  0.04538995  0.95111675  0.44902033    -0.92400
O124        O  0.96319352  0.95060890  0.53390760    -0.91300
C125        C  0.99929833  0.88564287  0.59458169     1.02700
C126        C  0.01375450  0.88690937  0.38886143     1.01400
C127        C  0.89835475  0.99207642  0.59635675     1.00800
C128        C  0.11091769  0.99113618  0.59393660     1.02900
C129        C  0.10941374  0.00050535  0.38786897     1.01800
C130        C  0.89656511  0.99336209  0.39031169     1.00600
C131        C  0.89919298  0.88739973  0.48789176     1.00700
C132        C  0.10987812  0.88627851  0.49227654     1.03300
H133        H  0.94582948  0.93413786  0.43265661     0.30700
O134        O  0.96264070  0.95120757  0.44989421    -1.04600
H135        H  0.06307943  0.93322398  0.55051875     0.32700
O136        O  0.04597266  0.95062888  0.53377039    -1.07200
N137        N  0.23402907  0.22338449  0.48211000    -0.03100
C138        C  0.22854456  0.26472732  0.48437751    -0.00500
C139        C  0.26490175  0.28529219  0.47788622    -0.23400
C140        C  0.29420018  0.25626272  0.47194661    -0.23600
C141        C  0.27487443  0.21883569  0.47488882    -0.00600
H142        H  0.26963266  0.31810326  0.47812431     0.13200
H143        H  0.32660292  0.26175697  0.46775725     0.13200
N144        N  0.77157860  0.22289547  0.47454972    -0.03100
C145        C  0.77700810  0.26431394  0.47620527    -0.00500
C146        C  0.74161352  0.28499363  0.46590626    -0.23400
C147        C  0.71269381  0.25614516  0.45860559    -0.23600
C148        C  0.73121888  0.21852756  0.46444207    -0.00600
H149        H  0.73701327  0.31783538  0.46529177     0.13200
H150        H  0.68063077  0.26209732  0.45266911     0.13200
N151        N  0.77556618  0.76333212  0.46104718    -0.03100
C152        C  0.73465204  0.77055625  0.45631401    -0.00500
C153        C  0.71477055  0.73611569  0.44218963    -0.23400
C154        C  0.74343475  0.70610341  0.43906877    -0.23600
C155        C  0.78036154  0.72303601  0.45089254    -0.00600
H156        H  0.68217079  0.73248733  0.43744088     0.13200
H157        H  0.73717874  0.67435701  0.43207340     0.13200
N158        N  0.23621997  0.76103569  0.48392374    -0.03100
C159        C  0.23037850  0.71969812  0.48709269    -0.00500
C160        C  0.26599378  0.69856855  0.47857285    -0.23400
C161        C  0.29519343  0.72696110  0.47055112    -0.23600
C162        C  0.27674557  0.76486899  0.47406369    -0.00600
H163        H  0.27037705  0.66569644  0.47877730     0.13200
H164        H  0.32722178  0.72058067  0.46496738     0.13200
N165        N  0.73416163  0.98969029  0.26039331    -0.03100
C166        C  0.77513480  0.99306497  0.26724353    -0.00500
C167        C  0.79726289  0.98912950  0.23157444    -0.23400
C168        C  0.76953174  0.98328201  0.20105300    -0.23600
C169        C  0.73121210  0.98342201  0.21909184    -0.00600
H170        H  0.83023821  0.98981539  0.22834879     0.13200
H171        H  0.77658679  0.98014139  0.16881102     0.13200
O172        O  0.43270478  0.10721121  0.48930416    -0.79700
O173        O  0.43763655  0.87550396  0.49119706    -0.81300
O174        O  0.38758814  0.99745616  0.42453692    -0.78300
O175        O  0.38666255  0.99003719  0.56060600    -0.76700
O176        O  0.43657279  0.98799553  0.60981930    -0.78500
O177        O  0.43656592  0.99453346  0.37455013    -0.79400
O178        O  0.38789599  0.92519632  0.49316894    -0.80700
O179        O  0.38471966  0.05623198  0.49431010    -0.81000
Eu180      Eu  0.42110696  0.99144812  0.49292881     2.39200
O181        O  0.46373931  0.95052326  0.53440345    -0.88500
O182        O  0.46176305  0.03351926  0.45125416    -0.92100
C183        C  0.39543882  0.09393064  0.49113272     1.02600
C184        C  0.39984130  0.88774164  0.49163603     1.02400
C185        C  0.39893654  0.99773923  0.38649605     1.02300
C186        C  0.39861664  0.98789198  0.59835279     1.00200
H187        H  0.44630954  0.93253867  0.43413391     0.29900
O188        O  0.46305526  0.94952577  0.45151196    -1.00900
H189        H  0.44380963  0.05041173  0.55141800     0.30000
O190        O  0.46153260  0.03409737  0.53431995    -1.03500
O191        O  0.57588965  0.87840877  0.49087378    -0.80700
O192        O  0.57001395  0.11038449  0.49067968    -0.80200
O193        O  0.50626291  0.92655900  0.37627971    -0.78700
O194        O  0.50633839  0.92838825  0.61102040    -0.82000
O195        O  0.50149100  0.05894802  0.61008562    -0.79900
O196        O  0.50441477  0.05726854  0.37447790    -0.78500
O197        O  0.62106404  0.99705970  0.42475493    -0.80000
O198        O  0.62135500  0.99387382  0.56070784    -0.82000
O199        O  0.57140914  0.99167420  0.37557820    -0.78700
O200        O  0.57173160  0.99676699  0.61005754    -0.81400
O201        O  0.51122953  0.87642506  0.42531124    -0.77100
O202        O  0.50005909  0.10769187  0.42305267    -0.77100
O203        O  0.49793154  0.10919059  0.56097310    -0.76800
O204        O  0.50742138  0.87703720  0.56335262    -0.80300
O205        O  0.62305236  0.93018485  0.48826145    -0.79700
O206        O  0.61994787  0.06105201  0.49481262    -0.78000
Eu207      Eu  0.50611069  0.90871025  0.49369563     2.39800
Eu208      Eu  0.50202253  0.07671057  0.49240585     2.39600
Eu209      Eu  0.50382257  0.99225853  0.41006090     2.38400
Eu210      Eu  0.50430150  0.99329899  0.57559322     2.39900
Eu211      Eu  0.58691467  0.99477142  0.49293814     2.39800
O212        O  0.54477562  0.03614225  0.53422131    -0.92400
O213        O  0.54606564  0.95196916  0.45215124    -0.91300
C214        C  0.61301940  0.89216334  0.48817852     1.02700
C215        C  0.60780573  0.09835945  0.49205605     1.01400
C216        C  0.51024931  0.88915802  0.38773575     1.00800
C217        C  0.50705207  0.89044453  0.60080218     1.02900
C218        C  0.49839388  0.09646885  0.59859727     1.01800
C219        C  0.50190590  0.09490468  0.38553301     1.00600
C220        C  0.60924304  0.99447689  0.38693820     1.00700
C221        C  0.60958346  0.99574078  0.59850683     1.03300
H222        H  0.56121502  0.05247904  0.43376906     0.30700
O223        O  0.54443963  0.03535639  0.45110699    -1.04600
H224        H  0.56464177  0.93538007  0.55194350     0.32700
O225        O  0.54693743  0.95180750  0.53483109    -1.07200
N226        N  0.27273380  0.97315422  0.72303471    -0.03100
C227        C  0.27861797  0.96222062  0.76292504    -0.00500
C228        C  0.24196654  0.95432946  0.78237249    -0.23400
C229        C  0.21199248  0.96094534  0.75421521    -0.23600
C230        C  0.23125927  0.97247299  0.71838025    -0.00600
H231        H  0.23745658  0.94687585  0.81439201     0.13200
H232        H  0.17936602  0.95838582  0.75942258     0.13200
N233        N  0.73451442  0.00709005  0.72449809    -0.03100
C234        C  0.77602763  0.00452184  0.72009284    -0.00500
C235        C  0.79578722  0.01170043  0.75680062    -0.23400
C236        C  0.76623339  0.01826752  0.78526796    -0.23600
C237        C  0.72918554  0.01482794  0.76523184    -0.00600
H238        H  0.82846690  0.01145806  0.76235220     0.13200
H239        H  0.77114136  0.02295232  0.81774221     0.13200
N240        N  0.27281909  0.02587914  0.26378914    -0.03100
C241        C  0.27783557  0.02877638  0.22232542    -0.00500
C242        C  0.24275424  0.04350702  0.20377464    -0.23400
C243        C  0.21463667  0.04909798  0.23395053    -0.23600
C244        C  0.23325022  0.03781662  0.27027430    -0.00600
H245        H  0.23760361  0.04791995  0.17128183     0.13200
H246        H  0.18289052  0.05749895  0.22941633     0.13200
O247        O  0.61769743  0.99070197  0.06036563    -0.79700
O248        O  0.38638040  0.99840767  0.06207520    -0.81300
O249        O  0.50293574  0.06543414  0.10722901    -0.78300
O250        O  0.50342591  0.93017362  0.11116696    -0.76700
O251        O  0.49974194  0.87975081  0.06271625    -0.78500
O252        O  0.50472579  0.11388919  0.05658640    -0.79400
O253        O  0.43742802  0.00007463  0.11017201    -0.80700
O254        O  0.56771225  0.99750088  0.10914613    -0.81000
Eu255      Eu  0.50215601  0.99694880  0.07465530     2.39200
O256        O  0.45892976  0.95483703  0.03524801    -0.88500
O257        O  0.54393503  0.03656032  0.03169775    -0.92100
C258        C  0.60514877  0.99342663  0.09793124     1.02600
C259        C  0.39958773  0.00033605  0.09953201     1.02400
C260        C  0.50422849  0.10304047  0.09481290     1.02300
C261        C  0.50185044  0.89210955  0.10027951     1.00200
H262        H  0.44406634  0.05556241  0.04916354     0.29900
O263        O  0.46038409  0.03763536  0.03225557    -1.00900
H264        H  0.55958157  0.93636866  0.05157000     0.30000
O265        O  0.54294686  0.95362075  0.03420136    -1.03500
O266        O  0.38578403  0.99000585  0.92321603    -0.80700
O267        O  0.61777435  0.99625641  0.92322594    -0.80200
O268        O  0.43688290  0.11278644  0.98915839    -0.78700
O269        O  0.43414904  0.87836072  0.99739675    -0.82000
O270        O  0.56444429  0.87612485  0.99469351    -0.79900
O271        O  0.56719804  0.11186264  0.99032805    -0.78500
O272        O  0.49974797  0.06042598  0.87301043    -0.80000
O273        O  0.50075453  0.92385684  0.87653007    -0.82000
O274        O  0.50337523  0.11105689  0.92125737    -0.78700
O275        O  0.49651395  0.87603501  0.92769736    -0.81400
O276        O  0.38579173  0.06478936  0.99291363    -0.77100
O277        O  0.61668185  0.06236065  0.99718385    -0.77100
O278        O  0.61614532  0.92333230  0.98999590    -0.76800
O279        O  0.38401804  0.92705028  0.99694505    -0.80300
O280        O  0.43631644  0.99103550  0.87428791    -0.79700
O281        O  0.56739874  0.99217558  0.87434816    -0.78000
Eu282      Eu  0.41725501  0.99554516  0.99246839     2.39800
Eu283      Eu  0.58543206  0.99328017  0.99159662     2.39600
Eu284      Eu  0.50216415  0.07751132  0.98942845     2.38400
Eu285      Eu  0.49992371  0.91228326  0.99418178     2.39900
Eu286      Eu  0.50157560  0.99292509  0.90889225     2.39800
O287        O  0.54270167  0.95142969  0.95123254    -0.92400
O288        O  0.45943529  0.03562872  0.94919330    -0.91300
C289        C  0.39881574  0.98879090  0.88570362     1.02700
C290        C  0.60494538  0.99524427  0.88569665     1.01400
C291        C  0.39914244  0.10213579  0.99164357     1.00800
C292        C  0.39638991  0.88927659  0.99838332     1.02900
C293        C  0.60234574  0.88615652  0.99245281     1.01800
C294        C  0.60425329  0.10003676  0.99552471     1.00600
C295        C  0.50124391  0.09860646  0.88372811     1.00700
C296        C  0.49766650  0.88644432  0.88946073     1.03300
H297        H  0.56090772  0.05185466  0.93183596     0.30700
O298        O  0.54398624  0.03488922  0.94914522    -1.04600
H299        H  0.44213267  0.93556482  0.93540766     0.32700
O300        O  0.45913423  0.95329377  0.95176342    -1.07200
N301        N  0.50836793  0.22629333  0.22350810    -0.03100
C302        C  0.50780228  0.22145326  0.26514909    -0.00500
C303        C  0.51397505  0.25827613  0.28500868    -0.23400
C304        C  0.51824153  0.28720506  0.25552443    -0.23600
C305        C  0.51461151  0.26727075  0.21847258    -0.00600
H306        H  0.51488322  0.26351557  0.31775641     0.13200
H307        H  0.52219591  0.31974529  0.26048065     0.13200
N308        N  0.51199379  0.76400662  0.22331650    -0.03100
C309        C  0.50637873  0.72309298  0.21712812    -0.00500
C310        C  0.51324181  0.70100498  0.25255712    -0.23400
C311        C  0.52287238  0.72855793  0.28212031    -0.23600
C312        C  0.52147883  0.76678326  0.26397880    -0.00600
H313        H  0.51120793  0.66813266  0.25643754     0.13200
H314        H  0.52823148  0.72162290  0.31413458     0.13200
N315        N  0.47765618  0.76226651  0.76392295    -0.03100
C316        C  0.46242379  0.72359915  0.76876149    -0.00500
C317        C  0.45139143  0.70690121  0.73150617    -0.23400
C318        C  0.46043813  0.73527161  0.70240990    -0.23600
C319        C  0.47685793  0.76863396  0.72247100    -0.00600
H320        H  0.44105054  0.67599700  0.72562472     0.13200
H321        H  0.45691965  0.73139687  0.66964829     0.13200
N322        N  0.48950505  0.22562629  0.75952055    -0.03100
C323        C  0.47863234  0.22054101  0.71947775    -0.00500
C324        C  0.47306059  0.25779400  0.70019691    -0.23400
C325        C  0.48060113  0.28716145  0.72869645    -0.23600
C326        C  0.49089452  0.26709335  0.76456403    -0.00600
H327        H  0.46597034  0.26304992  0.66820145     0.13200
H328        H  0.47897067  0.31992135  0.72377433     0.13200
O329        O  0.99717639  0.37721314  0.06101880    -0.79700
O330        O  0.00300738  0.60853094  0.06432785    -0.81300
O331        O  0.06527354  0.48797112  0.11009722    -0.78300
O332        O  0.93001724  0.49847497  0.10882431    -0.76700
O333        O  0.88035508  0.49517114  0.05950033    -0.78500
O334        O  0.11545254  0.49148503  0.06140000    -0.79400
O335        O  0.00279635  0.55704507  0.11205150    -0.80700
O336        O  0.99407912  0.42770672  0.10970226    -0.81000
Eu337      Eu  0.99781049  0.49279263  0.07533971     2.39200
O338        O  0.95747301  0.53538977  0.03385698    -0.88500
O339        O  0.03839171  0.45028455  0.03379840    -0.92100
C340        C  0.99521104  0.39009616  0.09856514     1.02600
C341        C  0.00427863  0.59501552  0.10179370     1.02400
C342        C  0.10328522  0.48905848  0.09903997     1.02300
C343        C  0.89212094  0.49799851  0.09730709     1.00200
H344        H  0.05806359  0.55037036  0.05266865     0.29900
O345        O  0.04044868  0.53439258  0.03516545    -1.00900
H346        H  0.93803001  0.43508129  0.05069868     0.30000
O347        O  0.95574990  0.45154436  0.03365707    -1.03500
O348        O  0.99899781  0.61060638  0.92514858    -0.80700
O349        O  0.99735253  0.37715163  0.92236295    -0.80200
O350        O  0.11710108  0.55751491  0.99486568    -0.78700
O351        O  0.88130656  0.55939986  0.99582482    -0.82000
O352        O  0.87956176  0.42965057  0.99216233    -0.79900
O353        O  0.11374104  0.42574888  0.99560282    -0.78500
O354        O  0.06768516  0.49259372  0.87588218    -0.80000
O355        O  0.93216061  0.49447529  0.87409917    -0.82000
O356        O  0.11606711  0.48842106  0.92651934    -0.78700
O357        O  0.88252137  0.49814699  0.92342516    -0.81400
O358        O  0.06973664  0.60916085  0.99537254    -0.77100
O359        O  0.06446517  0.37598604  0.99037065    -0.77100
O360        O  0.92686454  0.37788712  0.99099852    -0.76800
O361        O  0.93067466  0.60897447  0.00188330    -0.80300
O362        O  0.99845577  0.56023765  0.87619943    -0.79700
O363        O  0.00069028  0.42801754  0.87411431    -0.78000
Eu364      Eu  0.00004153  0.57789390  0.99412766     2.39800
Eu365      Eu  0.99635914  0.40908588  0.99165554     2.39600
Eu366      Eu  0.08104939  0.49227633  0.99362896     2.38400
Eu367      Eu  0.91573578  0.49434498  0.99182994     2.39900
Eu368      Eu  0.99931584  0.49393606  0.90962415     2.39800
O369        O  0.95610194  0.45205597  0.94962245    -0.92400
O370        O  0.04092694  0.53539875  0.95186652    -0.91300
C371        C  0.99813802  0.59794332  0.88746397     1.02700
C372        C  0.99972604  0.39001763  0.88479453     1.01400
C373        C  0.10715130  0.59566199  0.99606735     1.00800
C374        C  0.89298367  0.59646492  0.00122515     1.02900
C375        C  0.88958013  0.39159977  0.99190839     1.01800
C376        C  0.10203494  0.38835456  0.99256197     1.00600
C377        C  0.10515075  0.48906683  0.88842182     1.00700
C378        C  0.89435063  0.49706744  0.88559321     1.03300
H379        H  0.05623971  0.43427978  0.93460617     0.30700
O380        O  0.03917626  0.45131278  0.95166028    -1.04600
H381        H  0.94137380  0.55374927  0.93490156     0.32700
O382        O  0.95845074  0.53635207  0.95168616    -1.07200
N383        N  0.77020767  0.52216442  0.22463593    -0.03100
C384        C  0.72909001  0.52893632  0.21956809    -0.00500
C385        C  0.71231428  0.54534212  0.25483135    -0.23400
C386        C  0.74286227  0.54765717  0.28306469    -0.23600
C387        C  0.77778649  0.53303449  0.26438991    -0.00600
H388        H  0.68047024  0.55288560  0.26012562     0.13200
H389        H  0.73943283  0.55686403  0.31472785     0.13200
N390        N  0.22870409  0.47548421  0.22447521    -0.03100
C391        C  0.26972691  0.47820914  0.21734085    -0.00500
C392        C  0.29208506  0.46905075  0.25196492    -0.23400
C393        C  0.26454451  0.46088155  0.28210796    -0.23600
C394        C  0.22601124  0.46513980  0.26500973    -0.00600
H395        H  0.32508910  0.46902652  0.25501360     0.13200
H396        H  0.27193891  0.45495155  0.31389866     0.13200
N397        N  0.23001777  0.45955365  0.76610257    -0.03100
C398        C  0.22320985  0.45246499  0.72559614    -0.00500
C399        C  0.25607801  0.43274258  0.70782819    -0.23400
C400        C  0.28462724  0.42769077  0.73785096    -0.23600
C401        C  0.26839532  0.44474001  0.77302267    -0.00600
H402        H  0.25963696  0.42477617  0.67583161     0.13200
H403        H  0.31527719  0.41577702  0.73366426     0.13200
N404        N  0.76707807  0.50741439  0.76197135    -0.03100
C405        C  0.77139311  0.50349472  0.72060427    -0.00500
C406        C  0.73491243  0.51123506  0.70062678    -0.23400
C407        C  0.70660451  0.51914668  0.73009969    -0.23600
C408        C  0.72657586  0.51620076  0.76731600    -0.00600
H409        H  0.72941645  0.51086692  0.66791494     0.13200
H410        H  0.67427770  0.52450356  0.72503183     0.13200
N411        N  0.26691129  0.26286739  0.98902720    -0.03100
C412        C  0.22554398  0.26577727  0.98395548    -0.00500
C413        C  0.20712785  0.22779953  0.98535171    -0.23400
C414        C  0.23744162  0.20008476  0.99200772    -0.23600
C415        C  0.27351245  0.22192597  0.99438105    -0.00600
H416        H  0.17473074  0.22118580  0.98315839     0.13200
H417        H  0.23372097  0.16724322  0.99465783     0.13200
O418        O  0.49697557  0.42781962  0.10989623    -0.79700
O419        O  0.50271935  0.42296249  0.87866502    -0.81300
O420        O  0.42787739  0.37916331  0.99472437    -0.78300
O421        O  0.56328979  0.37631547  0.99806376    -0.76700
O422        O  0.61402464  0.42449208  0.99538844    -0.78500
O423        O  0.37902261  0.42906607  0.98913214    -0.79400
O424        O  0.49717866  0.37548784  0.93012675    -0.80700
O425        O  0.49276867  0.37837635  0.06016285    -0.81000
Eu426      Eu  0.49639226  0.41202693  0.99469533     2.39200
O427        O  0.53966283  0.45135584  0.95257020    -0.88500
O428        O  0.45503058  0.45512127  0.03471494    -0.92100
C429        C  0.49522984  0.39017829  0.09750404     1.02600
C430        C  0.50024323  0.38569461  0.89221883     1.02400
C431        C  0.39018611  0.39111534  0.99188217     1.02300
C432        C  0.60139886  0.38702089  0.99734494     1.00200
H433        H  0.44025059  0.43490383  0.93442913     0.29900
O434        O  0.45696844  0.45282079  0.95089574    -1.00900
H435        H  0.55474459  0.43622535  0.05440480     0.30000
O436        O  0.53807571  0.45314645  0.03688988    -1.03500
O437        O  0.49212017  0.56069354  0.87542706    -0.80700
O438        O  0.49411643  0.56668524  0.10648162    -0.80200
O439        O  0.38192600  0.49286314  0.92424158    -0.78700
O440        O  0.61692691  0.49428369  0.92973663    -0.82000
O441        O  0.61438547  0.49643672  0.06105426    -0.79900
O442        O  0.37905363  0.49321897  0.05475507    -0.78500
O443        O  0.43293316  0.61266607  0.99433850    -0.80000
O444        O  0.56832633  0.60983958  0.99324104    -0.82000
O445        O  0.38228032  0.56437586  0.99098378    -0.78700
O446        O  0.61674847  0.55948222  0.99892330    -0.81400
O447        O  0.43170197  0.48480182  0.87533502    -0.77100
O448        O  0.42612887  0.49623523  0.10690985    -0.77100
O449        O  0.56521617  0.49961614  0.11089827    -0.76800
O450        O  0.56893820  0.49729713  0.87837264    -0.80300
O451        O  0.49806105  0.61039871  0.92465905    -0.79700
O452        O  0.50002091  0.61369379  0.05457131    -0.78000
Eu453      Eu  0.49958876  0.49269704  0.90867601     2.39800
Eu454      Eu  0.49640062  0.49642666  0.07718363     2.39600
Eu455      Eu  0.41528116  0.49592901  0.99037948     2.38400
Eu456      Eu  0.58091732  0.49280865  0.99468645     2.39900
Eu457      Eu  0.49978953  0.57688720  0.99080806     2.39800
O458        O  0.53926218  0.53568688  0.03462166    -0.92400
O459        O  0.45787041  0.53617956  0.94848858    -0.91300
C460        C  0.49318352  0.59844624  0.88751829     1.02700
C461        C  0.49645466  0.60378794  0.09242057     1.01400
C462        C  0.39396123  0.48618550  0.88741939     1.00800
C463        C  0.60621876  0.49735783  0.89195741     1.02900
C464        C  0.60308789  0.49948389  0.09866962     1.01800
C465        C  0.38905117  0.49411766  0.09277135     1.00600
C466        C  0.39487895  0.60179494  0.99384659     1.00700
C467        C  0.60579772  0.59751883  0.99732679     1.03300
H468        H  0.43933476  0.55454602  0.04890499     0.30700
O469        O  0.45667636  0.53703790  0.03259259    -1.04600
H470        H  0.55867146  0.55165424  0.93413940     0.32700
O471        O  0.54131837  0.53435193  0.95064492    -1.07200
N472        N  0.73009801  0.72294473  0.01548293    -0.03100
C473        C  0.72484873  0.76422807  0.01212916    -0.00500
C474        C  0.76042902  0.78492368  0.02140008    -0.23400
C475        C  0.78913643  0.75594715  0.03028319    -0.23600
C476        C  0.77031248  0.71833715  0.02584088    -0.00600
H477        H  0.76508710  0.81774209  0.02098596     0.13200
H478        H  0.82117458  0.76162355  0.03656738     0.13200
N479        N  0.27037587  0.72421572  0.02231317    -0.03100
C480        C  0.27619919  0.76331468  0.03636674    -0.00500
C481        C  0.24392627  0.77460178  0.06145710    -0.23400
C482        C  0.21619338  0.74346016  0.06058450    -0.23600
C483        C  0.23247337  0.71326391  0.03598677    -0.00600
H484        H  0.23968123  0.80343680  0.07713770     0.13200
H485        H  0.18596304  0.74393446  0.07414994     0.13200
N486        N  0.72679230  0.26315406  0.01886610    -0.03100
C487        C  0.76804944  0.26962606  0.02074863    -0.00500
C488        C  0.78814341  0.23522171  0.03511663    -0.23400
C489        C  0.75921169  0.20599440  0.04123197    -0.23600
C490        C  0.72212920  0.22336931  0.03069246    -0.00600
H491        H  0.82085671  0.23117968  0.03866349     0.13200
H492        H  0.76506694  0.17437386  0.04933953     0.13200
C493        C  0.69420378  0.29278632  0.01140586    -0.05100
C494        C  0.69728159  0.32194300  0.97970773    -0.32500
C495        C  0.66715151  0.35246277  0.97437183     0.36800
C496        C  0.63276836  0.35399036  0.00047850    -0.05400
C497        C  0.62896067  0.32418889  0.03118819    -0.32400
C498        C  0.65926755  0.29415893  0.03706656     0.36700
H499        H  0.72323626  0.32124046  0.95913656     0.17000
O500        O  0.67156014  0.38060415  0.94345412    -0.59900
H501        H  0.60303865  0.32512032  0.05189633     0.17100
O502        O  0.65586878  0.26813828  0.06994309    -0.60000
H503        H  0.63124504  0.25122685  0.06447578     0.44000
H504        H  0.65681004  0.36878441  0.91971133     0.44000
C505        C  0.36352501  0.63432343  0.99946453    -0.05100
C506        C  0.36198786  0.65540251  0.03684302    -0.32500
C507        C  0.33142846  0.68472204  0.04440695     0.36800
C508        C  0.30251830  0.69479164  0.01375180    -0.05400
C509        C  0.30387970  0.67355109  0.97634195    -0.32400
C510        C  0.33388209  0.64322270  0.96925948     0.36700
H511        H  0.38393680  0.64828522  0.06076670     0.17000
O512        O  0.32929655  0.70296628  0.08223052    -0.59900
H513        H  0.28134815  0.68018933  0.95289648     0.17100
O514        O  0.33456546  0.62311172  0.93241225    -0.60000
H515        H  0.31881074  0.59756803  0.93702136     0.44000
H516        H  0.35415080  0.72024186  0.08447779     0.44000
C517        C  0.63844364  0.62927918  0.00105527    -0.05100
C518        C  0.66693476  0.62729850  0.03329907    -0.32500
C519        C  0.69671966  0.65795925  0.03853288     0.36800
C520        C  0.69940702  0.69101796  0.01058497    -0.05400
C521        C  0.67123526  0.69254963  0.97798693    -0.32400
C522        C  0.64103098  0.66223081  0.97322792     0.36700
H523        H  0.66527124  0.60253055  0.05532991     0.17000
O524        O  0.72234404  0.65578256  0.07176496    -0.59900
H525        H  0.67296720  0.71709878  0.95574212     0.17100
O526        O  0.61456347  0.66473347  0.94074237    -0.60000
H527        H  0.62717404  0.64778497  0.91891218     0.50600
H528        H  0.71033376  0.67459461  0.09234995     0.44000
C529        C  0.29706710  0.29578019  0.98980704    -0.05100
C530        C  0.32853415  0.29549365  0.01926545    -0.32500
C531        C  0.35873838  0.32617007  0.02008206     0.36800
C532        C  0.35767964  0.35884897  0.99181173    -0.05400
C533        C  0.32586349  0.35976875  0.96275637    -0.32400
C534        C  0.29610505  0.32844038  0.96121752     0.36700
H535        H  0.32963890  0.27136822  0.04202101     0.17000
O536        O  0.38840975  0.32476087  0.04978127    -0.59900
H537        H  0.32473143  0.38422870  0.94030755     0.17100
O538        O  0.26789104  0.32860474  0.93004216    -0.60000
H539        H  0.25130464  0.35376737  0.93400563     0.44000
H540        H  0.40944437  0.30560828  0.03916349     0.44000
C541        C  0.63942636  0.50365088  0.86259280    -0.05100
C542        C  0.67199925  0.47567469  0.86052384    -0.32500
C543        C  0.70326161  0.48095278  0.83163637     0.36800
C544        C  0.70275489  0.51541616  0.80565308    -0.05400
C545        C  0.67176296  0.54494019  0.81029985    -0.32400
C546        C  0.64000875  0.53903396  0.83817262     0.36700
H547        H  0.67213538  0.44875544  0.87998945     0.17000
O548        O  0.73235236  0.45098157  0.82720598    -0.59900
H549        H  0.67094313  0.57159136  0.79046511     0.17100
O550        O  0.60997386  0.56824709  0.84178291    -0.60000
H551        H  0.58882474  0.56061183  0.82135913     0.44000
H552        H  0.72024079  0.43088131  0.80795016     0.44000
C553        C  0.29502139  0.45429937  0.80822950    -0.05100
C554        C  0.32381956  0.42471274  0.82046358    -0.32500
C555        C  0.35702137  0.43537922  0.84509978     0.36800
C556        C  0.36153552  0.47602920  0.85832422    -0.05400
C557        C  0.33161383  0.50517376  0.84835652    -0.32400
C558        C  0.29888842  0.49478901  0.82268735     0.36700
H559        H  0.32154948  0.39356309  0.80925838     0.17000
O560        O  0.38515943  0.40597158  0.85576702    -0.59900
H561        H  0.33432759  0.53628423  0.85955617     0.17100
O562        O  0.27247801  0.52494017  0.81003650    -0.60000
H563        H  0.28409212  0.53540245  0.78397269     0.44000
H564        H  0.37587140  0.39528496  0.88265465     0.44000
C565        C  0.29077041  0.48799420  0.17882309    -0.05100
C566        C  0.29529169  0.45718847  0.14939648    -0.32500
C567        C  0.32692062  0.45938433  0.12055159     0.36800
C568        C  0.35481096  0.49228676  0.12170813    -0.05400
C569        C  0.34854281  0.52442185  0.14925771    -0.32400
C570        C  0.31660833  0.52249416  0.17767146     0.36700
H571        H  0.27631989  0.43001786  0.15075439     0.17000
O572        O  0.33247044  0.42764032  0.09359896    -0.59900
H573        H  0.36889149  0.55059146  0.14927200     0.17100
O574        O  0.31188708  0.55351527  0.20561465    -0.60000
H575        H  0.33353949  0.54898391  0.22646225     0.44000
H576        H  0.31332260  0.43320664  0.07065192     0.44000
C577        C  0.70168783  0.51553982  0.18578474    -0.05100
C578        C  0.66572015  0.49443614  0.19689637    -0.32500
C579        C  0.63314595  0.48971281  0.16948352     0.36800
C580        C  0.63677094  0.50406390  0.12906211    -0.05400
C581        C  0.67365588  0.52330886  0.11719623    -0.32400
C582        C  0.70541341  0.53016952  0.14547034     0.36700
H583        H  0.66191482  0.48338092  0.22800317     0.17000
O584        O  0.59804372  0.47088906  0.18262458    -0.59900
H585        H  0.67719698  0.53484158  0.08627669     0.17100
O586        O  0.73873120  0.55293848  0.13394771    -0.60000
H587        H  0.72939556  0.58185080  0.13477846     0.44000
H588        H  0.58194006  0.49268686  0.19634215     0.44000
C589        C  0.86001201  0.62594280  0.00863245    -0.05100
C590        C  0.82791333  0.62959931  0.98026102    -0.32500
C591        C  0.79595497  0.65735470  0.98698865     0.36800
C592        C  0.79530056  0.68080765  0.02314934    -0.05400
C593        C  0.82590657  0.67465737  0.05284788    -0.32400
C594        C  0.85801451  0.64731762  0.04584256     0.36700
H595        H  0.82850892  0.61205047  0.95209660     0.17000
O596        O  0.76726592  0.66327445  0.95685552    -0.59900
H597        H  0.82588219  0.69260392  0.08076819     0.17100
O598        O  0.88737722  0.64181795  0.07540822    -0.60000
H599        H  0.87877852  0.61707036  0.09083039     0.44000
H600        H  0.77888671  0.68471870  0.93874165     0.44000
C601        C  0.85527144  0.36225146  0.99424309    -0.05100
C602        C  0.82042758  0.37222330  0.01773311    -0.32500
C603        C  0.78910532  0.34359493  0.02399267     0.36800
C604        C  0.79186512  0.30488130  0.00560865    -0.05400
C605        C  0.82495423  0.29634604  0.97935347    -0.32400
C606        C  0.85663282  0.32445110  0.97389346     0.36700
H607        H  0.81850549  0.40151025  0.03313669     0.17000
O608        O  0.75743995  0.35285443  0.04996469    -0.59900
H609        H  0.82752373  0.26652365  0.96501222     0.17100
O610        O  0.88919828  0.31421239  0.94947395    -0.60000
H611        H  0.88089850  0.32241273  0.92139425     0.44000
H612        H  0.76752045  0.34579451  0.07776785     0.44000
C613        C  0.14160951  0.62527532  0.00047925    -0.05100
C614        C  0.17921870  0.61183936  0.01725912    -0.32500
C615        C  0.21078009  0.63954895  0.02652770     0.36800
C616        C  0.20546085  0.68138220  0.01819488    -0.05400
C617        C  0.16907775  0.69441839  0.99898791    -0.32400
C618        C  0.13734819  0.66697184  0.99032983     0.36700
H619        H  0.18354025  0.57994116  0.02521006     0.17000
O620        O  0.24489613  0.62599796  0.04700984    -0.59900
H621        H  0.16440439  0.72665813  0.99250435     0.17100
O622        O  0.10191455  0.68160436  0.97313404    -0.60000
H623        H  0.10617803  0.67937414  0.94314356     0.44000
H624        H  0.26096069  0.61044368  0.02646689     0.44000
C625        C  0.13481940  0.35806227  0.98971779    -0.05100
C626        C  0.16585342  0.35728980  0.01951302    -0.32500
C627        C  0.19835197  0.32951075  0.01634048     0.36800
C628        C  0.20012753  0.30279544  0.98268422    -0.05400
C629        C  0.17014433  0.30521857  0.95191299    -0.32400
C630        C  0.13748553  0.33244828  0.95536300     0.36700
H631        H  0.16420961  0.37746486  0.04581128     0.17000
O632        O  0.22608715  0.32631877  0.04776225    -0.59900
H633        H  0.17110820  0.28445668  0.92603635     0.17100
O634        O  0.10888856  0.33454596  0.92459449    -0.60000
H635        H  0.08785809  0.31390636  0.93184459     0.44000
H636        H  0.24548351  0.34928553  0.04355588     0.44000
C637        C  0.86213774  0.49959702  0.85324405    -0.05100
C638        C  0.83289304  0.53114829  0.85456011    -0.32500
C639        C  0.80189771  0.53420724  0.82466924     0.36800
C640        C  0.79894047  0.50477676  0.79309803    -0.05400
C641        C  0.82833061  0.47322036  0.79184239    -0.32400
C642        C  0.86001776  0.47090522  0.82106431     0.36700
H643        H  0.83458237  0.55410378  0.87845833     0.17000
O644        O  0.77604580  0.56735212  0.82521007    -0.59900
H645        H  0.82659313  0.45008605  0.76818367     0.17100
O646        O  0.88777867  0.43944564  0.81887903    -0.60000
H647        H  0.90893989  0.44890686  0.79925619     0.44000
H648        H  0.75947557  0.56435134  0.85049942     0.44000
C649        C  0.13790860  0.48287833  0.85721862    -0.05100
C650        C  0.14428218  0.51117023  0.82528138    -0.32500
C651        C  0.17511386  0.50461796  0.79558276     0.36800
C652        C  0.19969764  0.46904248  0.79724896    -0.05400
C653        C  0.19340774  0.44118088  0.82948800    -0.32400
C654        C  0.16301402  0.44778377  0.85909637     0.36700
H655        H  0.12571042  0.53863892  0.82366693     0.17000
O656        O  0.18230862  0.53389583  0.76628679    -0.59900
H657        H  0.21170749  0.41353950  0.83113670     0.17100
O658        O  0.15741399  0.41907755  0.88930630    -0.60000
H659        H  0.13444907  0.40176455  0.87957038     0.44000
H660        H  0.15747236  0.53432559  0.74877107     0.44000
C661        C  0.13503741  0.48686738  0.13193363    -0.05100
C662        C  0.13239603  0.45650403  0.16234704    -0.32500
C663        C  0.16256014  0.45270805  0.19303222     0.36800
C664        C  0.19583926  0.48031409  0.19457849    -0.05400
C665        C  0.19773855  0.51143060  0.16467594    -0.32400
C666        C  0.16826769  0.51435384  0.13325674     0.36700
H667        H  0.10747556  0.43464380  0.16152681     0.17000
O668        O  0.16071138  0.42018113  0.21959884    -0.59900
H669        H  0.22238405  0.53352591  0.16544903     0.17100
O670        O  0.17162181  0.54494162  0.10462588    -0.60000
H671        H  0.19288187  0.53527792  0.08521733     0.44000
H672        H  0.13607683  0.42501873  0.23669447     0.44000
C673        C  0.86034081  0.50263730  0.12999458    -0.05100
C674        C  0.86510695  0.53362648  0.15933212    -0.32500
C675        C  0.83564842  0.54019631  0.18991052     0.36800
C676        C  0.80096102  0.51451207  0.19319909    -0.05400
C677        C  0.79632729  0.48297927  0.16412187    -0.32400
C678        C  0.82544250  0.47719246  0.13256840     0.36700
H679        H  0.89129119  0.55391901  0.15771379     0.17000
O680        O  0.84043729  0.57299664  0.21561971    -0.59900
H681        H  0.77001738  0.46292415  0.16578255     0.17100
O682        O  0.81962964  0.44636381  0.10469918    -0.60000
H683        H  0.83740206  0.42356384  0.11417098     0.44000
H684        H  0.82554426  0.59585927  0.20220931     0.44000
C685        C  0.50108576  0.35192038  0.86236011    -0.05100
C686        C  0.52712845  0.35469318  0.82851242    -0.32500
C687        C  0.52733964  0.32408226  0.79883317     0.36800
C688        C  0.50019679  0.29064571  0.80188156    -0.05400
C689        C  0.47578082  0.28644582  0.83686216    -0.32400
C690        C  0.47628705  0.31674799  0.86726940     0.36700
H691        H  0.54711589  0.38090868  0.82483526     0.17000
O692        O  0.55252630  0.32830567  0.76547228    -0.59900
H693        H  0.45442945  0.26119980  0.83933568     0.17100
O694        O  0.45089794  0.31273800  0.90051453    -0.60000
H695        H  0.42476448  0.32585821  0.89222490     0.44000
H696        H  0.57729059  0.31203305  0.77220842     0.44000
C697        C  0.48578210  0.63104344  0.85758052    -0.05100
C698        C  0.44706179  0.63400016  0.83954935    -0.32500
C699        C  0.43756045  0.66680476  0.81364488     0.36800
C700        C  0.46735834  0.69685118  0.80496895    -0.05400
C701        C  0.50553254  0.69477298  0.82455378    -0.32400
C702        C  0.51460367  0.66237320  0.85122882     0.36700
H703        H  0.42393585  0.61109861  0.84601102     0.17000
O704        O  0.39905017  0.66952268  0.79691008    -0.59900
H705        H  0.52907531  0.71706185  0.81761319     0.17100
O706        O  0.55228903  0.66058611  0.86962757    -0.60000
H707        H  0.55048229  0.67985160  0.89301658     0.44000
H708        H  0.39626994  0.64545711  0.77860174     0.44000
C709        C  0.49656824  0.70161475  0.17885840    -0.05100
C710        C  0.46613548  0.67126722  0.18071983    -0.32500
C711        C  0.46541109  0.63939289  0.15239760     0.36800
C712        C  0.49485650  0.63813541  0.12119579    -0.05400
C713        C  0.52243546  0.67086837  0.11660182    -0.32400
C714        C  0.52390019  0.70224765  0.14568267     0.36700
H715        H  0.44491499  0.67050830  0.20623773     0.17000
O716        O  0.43679485  0.60893244  0.15630418    -0.59900
H717        H  0.54459248  0.67072816  0.09189146     0.17100
O718        O  0.55415458  0.73123821  0.14326907    -0.60000
H719        H  0.57808400  0.71903002  0.15750121     0.44000
H720        H  0.41307695  0.61819662  0.13969397     0.44000
C721        C  0.49996143  0.35737640  0.12742243    -0.05100
C722        C  0.47050547  0.32625125  0.13043940    -0.32500
C723        C  0.47650106  0.29335843  0.15738568     0.36800
C724        C  0.51280131  0.29116608  0.18048356    -0.05400
C725        C  0.54337974  0.32071692  0.17479834    -0.32400
C726        C  0.53686793  0.35400670  0.14900593     0.36700
H727        H  0.44237864  0.32823878  0.11297402     0.17000
O728        O  0.44542850  0.26586719  0.16371067    -0.59900
H729        H  0.57130467  0.31946387  0.19273666     0.17100
O730        O  0.56688874  0.38300499  0.14473565    -0.60000
H731        H  0.56389175  0.40091317  0.16903730     0.44000
H732        H  0.44781902  0.24583301  0.14102418     0.44000
C733        C  0.63355493  0.13263747  0.00365379    -0.05100
C734        C  0.65035569  0.13497346  0.04293806    -0.32500
C735        C  0.67626534  0.16716663  0.05336634     0.36800
C736        C  0.68604467  0.19726976  0.02403103    -0.05400
C737        C  0.66720050  0.19632438  0.98537641    -0.32400
C738        C  0.64044311  0.16440861  0.97529408     0.36700
H739        H  0.64308710  0.11190405  0.06572952     0.17000
O740        O  0.69209537  0.16916837  0.09231190    -0.59900
H741        H  0.67483022  0.21903180  0.96238270     0.17100
O742        O  0.62285557  0.16334209  0.93711604    -0.60000
H743        H  0.59678366  0.17867531  0.93989936     0.44000
H744        H  0.71092670  0.14543620  0.09483333     0.44000
C745        C  0.30674270  0.79413154  0.02108163    -0.05100
C746        C  0.34789702  0.78389179  0.01431874    -0.32500
C747        C  0.37714051  0.81404387  0.00553202     0.36800
C748        C  0.36558383  0.85585466  0.00279723    -0.05400
C749        C  0.32400443  0.86566618  0.00608555    -0.32400
C750        C  0.29481393  0.83553804  0.01488273     0.36700
H751        H  0.35848682  0.75285092  0.01696283     0.17000
O752        O  0.41696681  0.80196345  0.99964523    -0.59900
H753        H  0.31383726  0.89707358  0.00257175     0.17100
O754        O  0.25431451  0.84683002  0.01585384    -0.60000
H755        H  0.25161269  0.86591407  0.03935472     0.44000
H756        H  0.42782463  0.79594002  0.02738713     0.44000
C757        C  0.63140532  0.85182505  0.99416241    -0.05100
C758        C  0.62725915  0.82248422  0.02549474    -0.32500
C759        C  0.65525533  0.79021239  0.02920358     0.36800
C760        C  0.68755159  0.78691500  0.00110897    -0.05400
C761        C  0.68978243  0.81440534  0.96797675    -0.32400
C762        C  0.66205040  0.84688938  0.96447893     0.36700
H763        H  0.60331650  0.82570345  0.04825264     0.17000
O764        O  0.65324319  0.76464944  0.06253012    -0.59900
H765        H  0.71477498  0.81217761  0.94625822     0.17100
O766        O  0.66495369  0.87343692  0.93198523    -0.60000
H767        H  0.68643471  0.89336264  0.93985929     0.44000
H768        H  0.63249734  0.74374731  0.05523586     0.44000
C769        C  0.36960717  0.13581955  0.99455092    -0.05100
C770        C  0.36985285  0.16723857  0.96506689    -0.32500
C771        C  0.34102847  0.19899693  0.96680831     0.36800
C772        C  0.31258930  0.20006131  0.99907754    -0.05400
C773        C  0.31495604  0.17057885  0.03041040    -0.32400
C774        C  0.34299369  0.13842683  0.02817056     0.36700
H775        H  0.39110287  0.16600071  0.93960717     0.17000
O776        O  0.33896728  0.22690727  0.93541526    -0.59900
H777        H  0.29288677  0.17086387  0.05520767     0.17100
O778        O  0.34344578  0.10913089  0.05836782    -0.60000
H779        H  0.36175731  0.12013672  0.07995952     0.44000
H780        H  0.31961400  0.21497759  0.91528077     0.44000
C781        C  0.49376640  0.19358763  0.79034479    -0.05100
C782        C  0.46448938  0.16207512  0.79249363    -0.32500
C783        C  0.46726523  0.13076020  0.82202010     0.36800
C784        C  0.49939252  0.13050612  0.85083155    -0.05400
C785        C  0.52890241  0.16183169  0.84875164    -0.32400
C786        C  0.52652047  0.19294338  0.81864880     0.36700
H787        H  0.43884403  0.16211659  0.77144364     0.17000
O788        O  0.43708836  0.10168236  0.82386709    -0.59900
H789        H  0.55421185  0.16190053  0.87022868     0.17100
O790        O  0.55735456  0.22129210  0.81578247    -0.60000
H791        H  0.55658083  0.23693822  0.84181468     0.44000
H792        H  0.44525435  0.08046929  0.80373740     0.44000
C793        C  0.49415120  0.85310641  0.85832615    -0.05100
C794        C  0.52134215  0.85116011  0.82498053    -0.32500
C795        C  0.51808598  0.82001591  0.79524854     0.36800
C796        C  0.48539389  0.79169703  0.79666182    -0.05400
C797        C  0.45891970  0.79319295  0.83071816    -0.32400
C798        C  0.46352589  0.82288190  0.86159388     0.36700
H799        H  0.54589674  0.87329983  0.82253835     0.17000
O800        O  0.54742843  0.81734318  0.76541409    -0.59900
H801        H  0.43390598  0.77160535  0.83310020     0.17100
O802        O  0.43762935  0.82237223  0.89471848    -0.60000
H803        H  0.41062346  0.83131834  0.88410068     0.44000
H804        H  0.56604536  0.79511431  0.77457686     0.44000
C805        C  0.50314426  0.86015127  0.13296203    -0.05100
C806        C  0.53330356  0.86159219  0.16364006    -0.32500
C807        C  0.53700818  0.82999850  0.19282112     0.36800
C808        C  0.50894810  0.79696226  0.19321847    -0.05400
C809        C  0.47816782  0.79627520  0.16299318    -0.32400
C810        C  0.47559363  0.82696848  0.13281011     0.36700
H811        H  0.55523990  0.88646351  0.16392512     0.17000
O812        O  0.56911783  0.83114524  0.21985063    -0.59900
H813        H  0.45586511  0.77181708  0.16271312     0.17100
O814        O  0.44586589  0.82428104  0.10324956    -0.60000
H815        H  0.42134456  0.83751872  0.11531735     0.44000
H816        H  0.59032418  0.81302334  0.20784391     0.44000
C817        C  0.50473991  0.13569362  0.12703214    -0.05100
C818        C  0.47805162  0.13300831  0.16075865    -0.32500
C819        C  0.47824875  0.16268155  0.19219722     0.36800
C820        C  0.50652210  0.19540069  0.19119947    -0.05400
C821        C  0.53316496  0.19799825  0.15726039    -0.32400
C822        C  0.53197023  0.16911020  0.12521874     0.36700
H823        H  0.45620546  0.10812034  0.16235261     0.17000
O824        O  0.44909989  0.16074493  0.22237315    -0.59900
H825        H  0.55545082  0.22245192  0.15571264     0.17100
O826        O  0.55899981  0.17275121  0.09326918    -0.60000
H827        H  0.54638391  0.19295670  0.07435360     0.44000
H828        H  0.45354607  0.13419622  0.23654487     0.44000
C829        C  0.36978817  0.00395485  0.13328628    -0.05100
C830        C  0.37993745  0.02707100  0.16834885    -0.32500
C831        C  0.35141121  0.03310086  0.19984871     0.36800
C832        C  0.31261292  0.01491081  0.19702877    -0.05400
C833        C  0.30359286  0.98972043  0.16324111    -0.32400
C834        C  0.33152417  0.98461267  0.13132159     0.36700
H835        H  0.40942456  0.04207820  0.17050084     0.17000
O836        O  0.36096248  0.05844798  0.23193117    -0.59900
H837        H  0.27368341  0.97563135  0.16055468     0.17100
O838        O  0.32127691  0.96031952  0.09861547    -0.60000
H839        H  0.30511070  0.97821607  0.08006030     0.44000
H840        H  0.35483921  0.08652403  0.22203551     0.44000
C841        C  0.69108541  0.01307911  0.78914488    -0.05100
C842        C  0.68547765  0.04308487  0.81938207    -0.32500
C843        C  0.65800068  0.03694037  0.85137369     0.36800
C844        C  0.63485476  0.00083495  0.85288582    -0.05400
C845        C  0.63796512  0.97210017  0.82106094    -0.32400
C846        C  0.66643910  0.97775475  0.78946545     0.36700
H847        H  0.70425826  0.07043257  0.81940290     0.17000
O848        O  0.65336309  0.06670109  0.88067155    -0.59900
H849        H  0.61935731  0.94465016  0.82155747     0.17100
O850        O  0.67143037  0.94772726  0.76054820    -0.60000
H851        H  0.69320608  0.92956853  0.77151906     0.44000
H852        H  0.67612196  0.06220793  0.90033336     0.44000
C853        C  0.31625937  0.96660530  0.78710557    -0.05100
C854        C  0.32596790  0.93527568  0.81495836    -0.32500
C855        C  0.35243304  0.94262310  0.84763796     0.36800
C856        C  0.36944005  0.98170715  0.85279215    -0.05400
C857        C  0.36217180  0.01225545  0.82345215    -0.32400
C858        C  0.33520420  0.00509617  0.79091937     0.36700
H859        H  0.31117838  0.90567330  0.81257419     0.17000
O860        O  0.36112935  0.91162837  0.87470591    -0.59900
H861        H  0.37632075  0.04205429  0.82661564     0.17100
O862        O  0.32549382  0.03660805  0.76480748    -0.60000
H863        H  0.30094671  0.04977478  0.77690458     0.44000
H864        H  0.38545796  0.89766661  0.86308797     0.44000
C865        C  0.50129156  0.18411480  0.28946147    -0.05100
C866        C  0.47304334  0.18665798  0.32184579    -0.32500
C867        C  0.47331831  0.15807564  0.35351755     0.36800
C868        C  0.50100361  0.12526711  0.35233892    -0.05400
C869        C  0.52760200  0.12110037  0.31865839    -0.32400
C870        C  0.52835318  0.15075586  0.28754758     0.36700
H871        H  0.45224994  0.21248921  0.32384232     0.17000
O872        O  0.44625830  0.16234078  0.38535311    -0.59900
H873        H  0.54917568  0.09588424  0.31751103     0.17100
O874        O  0.55787464  0.14890962  0.25773845    -0.60000
H875        H  0.54899384  0.12677222  0.23896846     0.44000
H876        H  0.45955884  0.18161883  0.40467518     0.44000
C877        C  0.52267614  0.80370005  0.28974422    -0.05100
C878        C  0.55215044  0.80514548  0.32114237    -0.32500
C879        C  0.54798222  0.83233381  0.35377340     0.36800
C880        C  0.51457360  0.85932341  0.35467339    -0.05400
C881        C  0.48665658  0.85999035  0.32194827    -0.32400
C882        C  0.49007915  0.83188300  0.28989439     0.36700
H883        H  0.57740896  0.78357572  0.32139370     0.17000
O884        O  0.57713362  0.83302001  0.38407848    -0.59900
H885        H  0.46122391  0.88134554  0.32210238     0.17100
O886        O  0.46015569  0.83070445  0.26043204    -0.60000
H887        H  0.43937293  0.81125623  0.27096567     0.44000
H888        H  0.56970291  0.81040897  0.40297531     0.44000
C889        C  0.49297532  0.12645501  0.63145062    -0.05100
C890        C  0.45594407  0.14778635  0.63400487    -0.32500
C891        C  0.44910716  0.17533314  0.66590078     0.36800
C892        C  0.47990690  0.18248875  0.69534192    -0.05400
C893        C  0.51618368  0.15953917  0.69399128    -0.32400
C894        C  0.52276818  0.13145829  0.66224861     0.36700
H895        H  0.43230886  0.14309253  0.61114972     0.17000
O896        O  0.41307267  0.19694091  0.66679665    -0.59900
H897        H  0.54046392  0.16534991  0.71585964     0.17100
O898        O  0.55899065  0.11025715  0.66063569    -0.60000
H899        H  0.57683178  0.12639026  0.64208875     0.44000
H900        H  0.39562644  0.18234477  0.68692187     0.44000
C901        C  0.49308921  0.80336185  0.69842601    -0.05100
C902        C  0.51831111  0.79404848  0.66466130    -0.32500
C903        C  0.52407713  0.82220766  0.63288349     0.36800
C904        C  0.50569500  0.86098277  0.63525407    -0.05400
C905        C  0.48440911  0.87179384  0.67123023    -0.32400
C906        C  0.47713572  0.84304766  0.70228114     0.36700
H907        H  0.53128237  0.76363662  0.66155314     0.17000
O908        O  0.54772346  0.81156921  0.59983889    -0.59900
H909        H  0.47138719  0.90205828  0.67437325     0.17100
O910        O  0.45108312  0.85268431  0.73381257    -0.60000
H911        H  0.46499384  0.87460115  0.74954263     0.44000
H912        H  0.52944651  0.79546142  0.58172020     0.44000
C913        C  0.36647433  0.00378477  0.35460365    -0.05100
C914        C  0.33922173  0.03688822  0.35826755    -0.32500
C915        C  0.30859850  0.04417971  0.32874317     0.36800
C916        C  0.30385027  0.01766641  0.29487669    -0.05400
C917        C  0.33120173  0.98448121  0.29111321    -0.32400
C918        C  0.36258605  0.97781832  0.32023918     0.36700
H919        H  0.34234759  0.05795688  0.38371854     0.17000
O920        O  0.28505537  0.07886446  0.33185057    -0.59900
H921        H  0.32828326  0.96369599  0.26546572     0.17100
O922        O  0.38837588  0.94498568  0.31560158    -0.60000
H923        H  0.40990817  0.95445388  0.29639969     0.44000
H924        H  0.26736587  0.07452667  0.35615664     0.44000
C925        C  0.64166942  0.99763236  0.63098125    -0.05100
C926        C  0.63869819  0.02721292  0.66195256    -0.32500
C927        C  0.66907405  0.03094442  0.69231108     0.36800
C928        C  0.70292895  0.00384099  0.69306471    -0.05400
C929        C  0.70549481  0.97375582  0.66226496    -0.32400
C930        C  0.67564956  0.97094868  0.63117261     0.36700
H931        H  0.61324268  0.04847315  0.66191500     0.17000
O932        O  0.66676496  0.06290288  0.71947984    -0.59900
H933        H  0.73066707  0.95218234  0.66236407     0.17100
O934        O  0.67912087  0.94090966  0.60205115    -0.60000
H935        H  0.69640671  0.95296896  0.58017802     0.44000
H936        H  0.64104493  0.05869021  0.73509058     0.44000
C937        C  0.36649784  0.98470711  0.63076495    -0.05100
C938        C  0.33312986  0.01192150  0.63123593    -0.32500
C939        C  0.30255121  0.00934769  0.66172648     0.36800
C940        C  0.30434644  0.97827212  0.69193344    -0.05400
C941        C  0.33790103  0.95119124  0.69125979    -0.32400
C942        C  0.36867699  0.95436112  0.66140331     0.36700
H943        H  0.33125515  0.03594524  0.60841682     0.17000
O944        O  0.27255696  0.03875091  0.66319475    -0.59900
H945        H  0.33996084  0.92686830  0.71376021     0.17100
O946        O  0.40039802  0.92692994  0.66198765    -0.60000
H947        H  0.39185327  0.90440248  0.64348220     0.44000
H948        H  0.25787865  0.03704963  0.63661011     0.44000
C949        C  0.69399809  0.98132914  0.19355782    -0.05100
C950        C  0.66429686  0.01221404  0.19602740    -0.32500
C951        C  0.63454842  0.01616017  0.16528193     0.36800
C952        C  0.63534616  0.98982511  0.13104241    -0.05400
C953        C  0.66357250  0.95768687  0.12979304    -0.32400
C954        C  0.69249716  0.95301187  0.16093121     0.36700
H955        H  0.66540237  0.03449329  0.22056775     0.17000
O956        O  0.60649118  0.04737480  0.16758219    -0.59900
H957        H  0.66314521  0.93604160  0.10462997     0.17100
O958        O  0.71942517  0.92068778  0.15938101    -0.60000
H959        H  0.73658377  0.92539822  0.13474548     0.44000
H960        H  0.58523371  0.03754394  0.18691853     0.44000
C961        C  0.70180787  0.99162290  0.29108340    -0.05100
C962        C  0.70306110  0.02153395  0.32217493    -0.32500
C963        C  0.67365880  0.02253706  0.35371459     0.36800
C964        C  0.64117144  0.99414797  0.35411355    -0.05400
C965        C  0.63935328  0.96476707  0.32268853    -0.32400
C966        C  0.66950843  0.96293310  0.29182478     0.36700
H967        H  0.72701326  0.04435001  0.32206042     0.17000
O968        O  0.67614047  0.05238112  0.38315709    -0.59900
H969        H  0.61507670  0.94218258  0.32278521     0.17100
O970        O  0.66872760  0.93126753  0.26426577    -0.60000
H971        H  0.64338951  0.93521939  0.24794401     0.44000
H972        H  0.69465189  0.04105284  0.40446279     0.44000
C973        C  0.30232094  0.80212390  0.47467556    -0.05100
C974        C  0.30258975  0.82729313  0.50946220    -0.32500
C975        C  0.33461304  0.85520702  0.51573251     0.36800
C976        C  0.36718570  0.85728635  0.48748371    -0.05400
C977        C  0.36594830  0.83352664  0.45196834    -0.32400
C978        C  0.33368054  0.80636882  0.44521846     0.36700
H979        H  0.27932997  0.82369997  0.53283824     0.17000
O980        O  0.33517116  0.87854367  0.55065992    -0.59900
H981        H  0.38990335  0.83632131  0.42915702     0.17100
O982        O  0.33299214  0.78365749  0.40981700    -0.60000
H983        H  0.35689032  0.76494488  0.41153840     0.44000
H984        H  0.31667952  0.90197761  0.54489303     0.44000
C985        C  0.71052938  0.80578696  0.47094693    -0.05100
C986        C  0.67876138  0.79741388  0.49874713    -0.32500
C987        C  0.64683116  0.82514925  0.50469914     0.36800
C988        C  0.64707079  0.86277084  0.48387433    -0.05400
C989        C  0.68050405  0.87252903  0.45833284    -0.32400
C990        C  0.71199347  0.84409726  0.45146062     0.36700
H991        H  0.67732285  0.76789449  0.51392854     0.17000
O992        O  0.61556155  0.81514512  0.53087806    -0.59900
H993        H  0.68120145  0.90148473  0.44206800     0.17100
O994        O  0.74192907  0.85260385  0.42324522    -0.60000
H995        H  0.76014798  0.87279761  0.43671875     0.44000
H996        H  0.59681530  0.79768367  0.51457748     0.44000
C997        C  0.70553689  0.18172598  0.46864481    -0.05100
C998        C  0.70437322  0.16063993  0.50613703    -0.32500
C999        C  0.67189931  0.13395922  0.51493577     0.36800
C1000       C  0.64015253  0.12870015  0.48617465    -0.05400
C1001       C  0.64226273  0.14843911  0.44825212    -0.32400
C1002       C  0.67468401  0.17466160  0.43927788     0.36700
H1003       H  0.72727730  0.16661381  0.52940384     0.17000
O1004       O  0.67086383  0.11398173  0.55193735    -0.59900
H1005       H  0.61886486  0.14314823  0.42527764     0.17100
O1006       O  0.67597055  0.19379202  0.40178489    -0.60000
H1007       H  0.65252007  0.21313328  0.40153472     0.44000
H1008       H  0.65620429  0.13280395  0.57073514     0.44000
C1009       C  0.36221852  0.12367025  0.48701428    -0.05100
C1010       C  0.35780159  0.14414263  0.44966250    -0.32500
C1011       C  0.32650949  0.17266793  0.44417991     0.36800
C1012       C  0.29906205  0.18092867  0.47634189    -0.05400
C1013       C  0.30215892  0.15894766  0.51316724    -0.32400
C1014       C  0.33344148  0.12996312  0.51848108     0.36700
H1015       H  0.37880319  0.13808678  0.42472934     0.17000
O1016       O  0.32308502  0.19288311  0.40742146    -0.59900
H1017       H  0.28183841  0.16587453  0.53846978     0.17100
O1018       O  0.33714483  0.10974026  0.55516775    -0.60000
H1019       H  0.31656745  0.08747910  0.55402237     0.44000
H1020       H  0.34559287  0.21323515  0.40723300     0.44000
C1021       C  0.86478896  0.99250003  0.62631416    -0.05100
C1022       C  0.83204235  0.02002491  0.62082291    -0.32500
C1023       C  0.79995300  0.02186263  0.64922166     0.36800
C1024       C  0.80010970  0.99534411  0.68310620    -0.05400
C1025       C  0.83144293  0.96596395  0.68689795    -0.32400
C1026       C  0.86382159  0.96467579  0.65906721     0.36700
H1027       H  0.83229507  0.04140763  0.59538702     0.17000
O1028       O  0.77098235  0.05210483  0.64576338    -0.59900
H1029       H  0.83209917  0.94555829  0.71313527     0.17100
O1030       O  0.89461921  0.93661269  0.66450757    -0.60000
H1031       H  0.88435377  0.91114601  0.65161573     0.44000
H1032       H  0.75205524  0.04262955  0.62397699     0.44000
C1033       C  0.14434986  0.98983266  0.62377886    -0.05100
C1034       C  0.17749705  0.96310488  0.61716802    -0.32500
C1035       C  0.20861519  0.95928914  0.64638969     0.36800
C1036       C  0.20697666  0.98307509  0.68210055    -0.05400
C1037       C  0.17530879  0.01177876  0.68722483    -0.32400
C1038       C  0.14381416  0.01492101  0.65859449     0.36700
H1039       H  0.17818128  0.94368047  0.59026653     0.17000
O1040       O  0.23815821  0.92979110  0.64163669    -0.59900
H1041       H  0.17381119  0.03018505  0.71480995     0.17100
O1042       O  0.11282795  0.04264686  0.66474721    -0.60000
H1043       H  0.09366542  0.02908192  0.68401205     0.44000
H1044       H  0.25731978  0.94095367  0.62089056     0.44000
C1045       C  0.20802664  0.03060585  0.30713388    -0.05100
C1046       C  0.20549905  0.99103923  0.32381520    -0.32500
C1047       C  0.17312133  0.98056663  0.35006119     0.36800
C1048       C  0.14230564  0.00945002  0.35870293    -0.05400
C1049       C  0.14603545  0.04947379  0.34388526    -0.32400
C1050       C  0.17876567  0.06025810  0.31853892     0.36700
H1051       H  0.22725932  0.96768844  0.31474125     0.17000
O1052       O  0.17069666  0.94157482  0.36554113    -0.59900
H1053       H  0.12365279  0.07253957  0.35225629     0.17100
O1054       O  0.18196519  0.09983496  0.30460826    -0.60000
H1055       H  0.15875400  0.10377977  0.28538365     0.44000
H1056       H  0.18811767  0.94176397  0.39044465     0.44000
C1057       C  0.79639910  0.99506110  0.30666406    -0.05100
C1058       C  0.80891864  0.95806921  0.32456318    -0.32500
C1059       C  0.84174707  0.95729342  0.35203191     0.36800
C1060       C  0.86275688  0.99369219  0.36107761    -0.05400
C1061       C  0.84852960  0.03106257  0.34547975    -0.32400
C1062       C  0.81565763  0.03185047  0.31803795     0.36700
H1063       H  0.79512879  0.92946323  0.31498295     0.17000
O1064       O  0.85453327  0.92062328  0.36818955    -0.59900
H1065       H  0.86352919  0.05944459  0.35383345     0.17100
O1066       O  0.80370996  0.06838621  0.30094808    -0.60000
H1067       H  0.82100033  0.07175828  0.27621342     0.44000
H1068       H  0.83853359  0.91714322  0.39377909     0.44000
C1069       C  0.14267631  0.85423915  0.49156287    -0.05100
C1070       C  0.17254553  0.85540494  0.46067943    -0.32500
C1071       C  0.20330348  0.82524972  0.45805549     0.36800
C1072       C  0.20563734  0.79344846  0.48740522    -0.05400
C1073       C  0.17602639  0.79264545  0.51880296    -0.32400
C1074       C  0.14445125  0.82218508  0.52061863     0.36700
H1075       H  0.17122059  0.87914961  0.43749271     0.17000
O1076       O  0.22910981  0.82541035  0.42491810    -0.59900
H1077       H  0.17715458  0.76877570  0.54183856     0.17100
O1078       O  0.11622345  0.82014729  0.55164195    -0.60000
H1079       H  0.09593134  0.79947274  0.54259410     0.44000
H1080       H  0.24571980  0.85067371  0.42760170     0.44000
C1081       C  0.80755319  0.79307131  0.46987150    -0.05100
C1082       C  0.80163743  0.82384231  0.49952453    -0.32500
C1083       C  0.83054006  0.85529139  0.50514047     0.36800
C1084       C  0.86754173  0.85500354  0.48293854    -0.05400
C1085       C  0.87404178  0.82372157  0.45425341    -0.32400
C1086       C  0.84429108  0.79360047  0.44695536     0.36700
H1087       H  0.77419315  0.82402733  0.51802493     0.17000
O1088       O  0.82260867  0.88571525  0.53295947    -0.59900
H1089       H  0.90173735  0.82357211  0.43604996     0.17100
O1090       O  0.85011235  0.76671006  0.41520634    -0.60000
H1091       H  0.87447489  0.75015831  0.42278967     0.44000
H1092       H  0.80588447  0.90612948  0.51781213     0.44000
C1093       C  0.86553864  0.13022912  0.48571424    -0.05100
C1094       C  0.83467568  0.12695585  0.45584839    -0.32500
C1095       C  0.80404863  0.15720526  0.45174607     0.36800
C1096       C  0.80247213  0.19081690  0.47905361    -0.05400
C1097       C  0.83332368  0.19379250  0.50910882    -0.32400
C1098       C  0.86516642  0.16471350  0.51169814     0.36700
H1099       H  0.83512758  0.10151639  0.43454911     0.17000
O1100       O  0.77764324  0.15523523  0.41908495    -0.59900
H1101       H  0.83311012  0.21906112  0.53050325     0.17100
O1102       O  0.89526439  0.16978388  0.54054643    -0.60000
H1103       H  0.91565590  0.18812891  0.52749623     0.44000
H1104       H  0.76077285  0.13042719  0.42371538     0.44000
C1105       C  0.14136177  0.12999954  0.49045301    -0.05100
C1106       C  0.17194761  0.12795937  0.46032519    -0.32500
C1107       C  0.20225649  0.15841037  0.45720296     0.36800
C1108       C  0.20326010  0.19131673  0.48531160    -0.05400
C1109       C  0.17269409  0.19314055  0.51566766    -0.32400
C1110       C  0.14177662  0.16318239  0.51807688     0.36700
H1111       H  0.17158065  0.10327434  0.43814871     0.17000
O1112       O  0.22894232  0.15735283  0.42476889    -0.59900
H1113       H  0.17275349  0.21792291  0.53765667     0.17100
O1114       O  0.11223921  0.16647592  0.54774300    -0.60000
H1115       H  0.12477995  0.15475160  0.57284793     0.44000
H1116       H  0.24507718  0.13181105  0.42821805     0.44000
C1117       C  0.02186514  0.68121557  0.20003216    -0.05100
C1118       C  0.99516053  0.69029308  0.16736647    -0.32500
C1119       C  0.98930994  0.66277708  0.13516353     0.36800
C1120       C  0.00880609  0.62447357  0.13598840    -0.05400
C1121       C  0.03321339  0.61407368  0.17021057    -0.32400
C1122       C  0.04029274  0.64238974  0.20184136     0.36700
H1123       H  0.98093753  0.72024843  0.16537117     0.17000
O1124       O  0.96462467  0.67375962  0.10296554    -0.59900
H1125       H  0.04862615  0.58468399  0.17138402     0.17100
O1126       O  0.06808542  0.63332850  0.23207861    -0.60000
H1127       H  0.05415359  0.61332642  0.25018475     0.44000
H1128       H  0.98204813  0.69091087  0.08492763     0.44000
C1129       C  0.02241152  0.85408751  0.35946669    -0.05100
C1130       C  0.05993640  0.85413873  0.33893706    -0.32500
C1131       C  0.07072908  0.82154916  0.31349491     0.36800
C1132       C  0.04293002  0.78912650  0.30660922    -0.05400
C1133       C  0.00622010  0.78809265  0.32887520    -0.32400
C1134       C  0.99624776  0.82001130  0.35577086     0.36700
H1135       H  0.08128280  0.87916231  0.34327787     0.17000
O1136       O  0.10808262  0.82230382  0.29431648    -0.59900
H1137       H  0.98434458  0.76369667  0.32397403     0.17100
O1138       O  0.96050499  0.81807545  0.37768630    -0.60000
H1139       H  0.94030314  0.83397831  0.36144966     0.44000
H1140       H  0.12654788  0.80618690  0.31231720     0.44000
C1141       C  0.01470093  0.30007860  0.78902797    -0.05100
C1142       C  0.98883626  0.29225585  0.82263018    -0.32500
C1143       C  0.98349927  0.32107332  0.85384721     0.36800
C1144       C  0.00287399  0.35941690  0.85123440    -0.05400
C1145       C  0.02685107  0.36822217  0.81636512    -0.32400
C1146       C  0.03331545  0.33870037  0.78567894     0.36700
H1147       H  0.97442373  0.26253997  0.82588139     0.17000
O1148       O  0.95938160  0.31130923  0.88681135    -0.59900
H1149       H  0.04253907  0.39734000  0.81395050     0.17100
O1150       O  0.06097719  0.34638325  0.75500207    -0.60000
H1151       H  0.04838099  0.36812611  0.73787337     0.44000
H1152       H  0.97728345  0.29517380  0.90538868     0.44000
C1153       C  0.01816227  0.13052030  0.62603146    -0.05100
C1154       C  0.05806769  0.13639476  0.64041526    -0.32500
C1155       C  0.06705136  0.16902421  0.66658990     0.36800
C1156       C  0.03586497  0.19638952  0.67851407    -0.05400
C1157       C  0.99644903  0.19190832  0.66202900    -0.32400
C1158       C  0.98749916  0.15912728  0.63584262     0.36700
H1159       H  0.08229330  0.11558674  0.63136592     0.17000
O1160       O  0.10622989  0.17370359  0.68107572    -0.59900
H1161       H  0.97197607  0.21215068  0.67164742     0.17100
O1162       O  0.94853200  0.15460545  0.62086398    -0.60000
H1163       H  0.93386679  0.13820166  0.64181371     0.44000
H1164       H  0.11016413  0.15145179  0.70143204     0.44000
C1165       C  0.98676657  0.68592222  0.79040130    -0.05100
C1166       C  0.01386752  0.69302171  0.82313543    -0.32500
C1167       C  0.01789777  0.66477091  0.85504049     0.36800
C1168       C  0.99541350  0.62821671  0.85403071    -0.05400
C1169       C  0.96999476  0.62003666  0.82010223    -0.32400
C1170       C  0.96528531  0.64880094  0.78852507     0.36700
H1171       H  0.03043201  0.72170683  0.82499723     0.17000
O1172       O  0.04410697  0.67300525  0.88681384    -0.59900
H1173       H  0.95231716  0.59199459  0.81895347     0.17100
O1174       O  0.93703071  0.64202842  0.75815025    -0.60000
H1175       H  0.94883280  0.61998935  0.74090748     0.44000
H1176       H  0.02822836  0.69044708  0.90594405     0.44000
C1177       C  0.97465874  0.78879021  0.67864492    -0.05100
C1178       C  0.01530709  0.79724389  0.66756219    -0.32500
C1179       C  0.02413107  0.82955940  0.64069073     0.36800
C1180       C  0.99197292  0.85290188  0.62410703    -0.05400
C1181       C  0.95142812  0.84322431  0.63362147    -0.32400
C1182       C  0.94261033  0.81190512  0.66134011     0.36700
H1183       H  0.04024796  0.78068260  0.68196406     0.17000
O1184       O  0.06407774  0.83873406  0.63164586    -0.59900
H1185       H  0.92657619  0.86057789  0.62006890     0.17100
O1186       O  0.90286615  0.80569895  0.67348967    -0.60000
H1187       H  0.88849435  0.79472085  0.64908075     0.44000
H1188       H  0.07161633  0.86111106  0.65074098     0.44000
C1189       C  0.13446433  0.63331566  0.49949769    -0.05100
C1190       C  0.12825663  0.66802803  0.47450070    -0.32500
C1191       C  0.15758402  0.69930154  0.47261375     0.36800
C1192       C  0.19276335  0.69684329  0.49730655    -0.05400
C1193       C  0.19676983  0.66404086  0.52508057    -0.32400
C1194       C  0.16834265  0.63220244  0.52585941     0.36700
H1195       H  0.10169879  0.66980430  0.45470472     0.17000
O1196       O  0.15294090  0.73031413  0.44458677    -0.59900
H1197       H  0.22380715  0.66161111  0.54422434     0.17100
O1198       O  0.17453981  0.59967573  0.55174331    -0.60000
H1199       H  0.15913865  0.60656875  0.57701654     0.44000
H1200       H  0.16676850  0.72052337  0.41939032     0.44000
C1201       C  0.81344403  0.28746375  0.48874260    -0.05100
C1202       C  0.80784697  0.31843580  0.51819231    -0.32500
C1203       C  0.83514505  0.35114024  0.52102613     0.36800
C1204       C  0.86918484  0.35243886  0.49498407    -0.05400
C1205       C  0.87688257  0.31944934  0.46832662    -0.32400
C1206       C  0.84905980  0.28715570  0.46481738     0.36700
H1207       H  0.78047138  0.31880944  0.53695087     0.17000
O1208       O  0.82842930  0.38145232  0.54930511    -0.59900
H1209       H  0.90357593  0.31974789  0.44864734     0.17100
O1210       O  0.85479092  0.25796845  0.43516525    -0.60000
H1211       H  0.87766048  0.24064192  0.44523793     0.44000
H1212       H  0.80832625  0.40021310  0.53632545     0.44000
C1213       C  0.13218220  0.35074638  0.49456462    -0.05100
C1214       C  0.12792679  0.31784642  0.46704753    -0.32500
C1215       C  0.15719685  0.28644187  0.46582648     0.36800
C1216       C  0.19067068  0.28764198  0.49283056    -0.05400
C1217       C  0.19268230  0.31855693  0.52268052    -0.32400
C1218       C  0.16392716  0.35011994  0.52350421     0.36700
H1219       H  0.10299451  0.31757247  0.44511323     0.17000
O1220       O  0.15500696  0.25723464  0.43573611    -0.59900
H1221       H  0.21824441  0.31959878  0.54385805     0.17100
O1222       O  0.16686370  0.37998852  0.55289501    -0.60000
H1223       H  0.18651810  0.40026052  0.54175265     0.44000
H1224       H  0.13317145  0.23814676  0.44470880     0.44000
C1225       C  0.81632110  0.69650357  0.45874597    -0.05100
C1226       C  0.83724656  0.69823571  0.49635709    -0.32500
C1227       C  0.86493094  0.66710059  0.50735271     0.36800
C1228       C  0.87036302  0.63315501  0.48133448    -0.05400
C1229       C  0.85095554  0.63252906  0.44327334    -0.32400
C1230       C  0.82476478  0.66411695  0.43149797     0.36700
H1231       H  0.83089689  0.72264610  0.51787926     0.17000
O1232       O  0.88477443  0.66893493  0.54434208    -0.59900
H1233       H  0.85650466  0.60752802  0.42237836     0.17100
O1234       O  0.80749726  0.66327978  0.39313023    -0.60000
H1235       H  0.78851673  0.63959287  0.39327926     0.44000
H1236       H  0.90793070  0.68805699  0.53995180     0.44000
C1237       C  0.13519999  0.48141679  0.35699433    -0.05100
C1238       C  0.15853020  0.44552119  0.35616505    -0.32500
C1239       C  0.18540336  0.43796361  0.32372912     0.36800
C1240       C  0.18961638  0.46689336  0.29179062    -0.05400
C1241       C  0.16478565  0.50194687  0.29169691    -0.32400
C1242       C  0.13744958  0.50917244  0.32396565     0.36700
H1243       H  0.15564113  0.42311157  0.38054272     0.17000
O1244       O  0.20759032  0.40219563  0.32328858    -0.59900
H1245       H  0.16817250  0.52480124  0.26784532     0.17100
O1246       O  0.11384968  0.54395718  0.32356090    -0.60000
H1247       H  0.12937061  0.56430180  0.33988847     0.44000
H1248       H  0.22682764  0.40405875  0.34675208     0.44000
C1249       C  0.86897210  0.50675586  0.35424878    -0.05100
C1250       C  0.85722557  0.54718468  0.34637509    -0.32500
C1251       C  0.83032293  0.55646962  0.31438628     0.36800
C1252       C  0.81516026  0.52512672  0.28895762    -0.05400
C1253       C  0.82921651  0.48484287  0.29489625    -0.32400
C1254       C  0.85640349  0.47562507  0.32716957     0.36700
H1255       H  0.86913587  0.57174585  0.36502571     0.17000
O1256       O  0.81859895  0.59638357  0.30823686    -0.59900
H1257       H  0.81743465  0.46027986  0.27599377     0.17100
O1258       O  0.86928334  0.43604454  0.33293550    -0.60000
H1259       H  0.89362639  0.43293510  0.31504506     0.44000
H1260       H  0.79822002  0.60222008  0.32995044     0.44000
C1261       C  0.13353376  0.48302770  0.63657567    -0.05100
C1262       C  0.12215824  0.45982405  0.67124124    -0.32500
C1263       C  0.15014368  0.45209958  0.70280341     0.36800
C1264       C  0.18970145  0.46836448  0.70020794    -0.05400
C1265       C  0.20025377  0.49356875  0.66692726    -0.32400
C1266       C  0.17275229  0.50045643  0.63492989     0.36700
H1267       H  0.09214122  0.44582388  0.67291611     0.17000
O1268       O  0.13990080  0.42566380  0.73385497    -0.59900
H1269       H  0.23093962  0.50596094  0.66459206     0.17100
O1270       O  0.18457536  0.52403202  0.60221744    -0.60000
H1271       H  0.20066457  0.50544816  0.58436739     0.44000
H1272       H  0.12136597  0.44141025  0.75201937     0.44000
C1273       C  0.86872994  0.49224704  0.63570829    -0.05100
C1274       C  0.83607712  0.46473003  0.63447661    -0.32500
C1275       C  0.80646528  0.46504480  0.66527352     0.36800
C1276       C  0.80874292  0.49397752  0.69724854    -0.05400
C1277       C  0.84293908  0.51959181  0.70013990    -0.32400
C1278       C  0.87333368  0.51834904  0.66992195     0.36700
H1279       H  0.83332510  0.44318849  0.60941201     0.17000
O1280       O  0.77475008  0.43751418  0.66365652    -0.59900
H1281       H  0.84484987  0.54223002  0.72431178     0.17100
O1282       O  0.90576397  0.54488647  0.67247077    -0.60000
H1283       H  0.92643961  0.53054338  0.68956888     0.44000
H1284       H  0.75810394  0.44553091  0.63949516     0.44000
C1285       C  0.01248375  0.63221725  0.35930076    -0.05100
C1286       C  0.04324725  0.66176459  0.36435524    -0.32500
C1287       C  0.05123487  0.69114302  0.33386681     0.36800
C1288       C  0.02696816  0.69304865  0.29790287    -0.05400
C1289       C  0.99526276  0.66415105  0.29351927    -0.32400
C1290       C  0.98865775  0.63341902  0.32323450     0.36700
H1291       H  0.06247981  0.66096246  0.39138460     0.17000
O1292       O  0.08391654  0.71691124  0.33907518    -0.59900
H1293       H  0.97572348  0.66502943  0.26675738     0.17100
O1294       O  0.95805885  0.60534035  0.31723812    -0.60000
H1295       H  0.96993878  0.58447365  0.29863504     0.44000
H1296       H  0.10679448  0.70396966  0.32386839     0.44000
C1297       C  0.00860230  0.35265281  0.63023552    -0.05100
C1298       C  0.04176511  0.32541078  0.62743403    -0.32500
C1299       C  0.04890515  0.29571768  0.65784659     0.36800
C1300       C  0.02153829  0.29110617  0.69108936    -0.05400
C1301       C  0.98793929  0.31804272  0.69359548    -0.32400
C1302       C  0.98177272  0.34895503  0.66393779     0.36700
H1303       H  0.06330848  0.32827704  0.60234424     0.17000
O1304       O  0.08376776  0.27240427  0.65562024    -0.59900
H1305       H  0.96657428  0.31530197  0.71878258     0.17100
O1306       O  0.94940009  0.37537365  0.66820008    -0.60000
H1307       H  0.92711359  0.36348122  0.65135847     0.44000
H1308       H  0.10506168  0.28855729  0.67002260     0.44000
C1309       C  0.99583150  0.62901746  0.63452702    -0.05100
C1310       C  0.96551149  0.65893778  0.62898136    -0.32500
C1311       C  0.95923162  0.69019397  0.65783033     0.36800
C1312       C  0.98461581  0.69334825  0.69277797    -0.05400
C1313       C  0.01532973  0.66341915  0.69832240    -0.32400
C1314       C  0.02032813  0.63093773  0.67014179     0.36700
H1315       H  0.94543581  0.65725853  0.60261929     0.17000
O1316       O  0.92613476  0.71566695  0.65315193    -0.59900
H1317       H  0.03524451  0.66491622  0.72479345     0.17100
O1318       O  0.04991521  0.60194203  0.67717064    -0.60000
H1319       H  0.03720509  0.58206163  0.69632290     0.44000
H1320       H  0.93050814  0.73021926  0.62680424     0.44000
C1321       C  0.99552457  0.30319527  0.19647864    -0.05100
C1322       C  0.96736529  0.33549910  0.19695000    -0.32500
C1323       C  0.96699230  0.36416604  0.16501469     0.36800
C1324       C  0.99474441  0.36017547  0.13204943    -0.05400
C1325       C  0.02411399  0.32909656  0.13274767    -0.32400
C1326       C  0.02505898  0.30110676  0.16497434     0.36700
H1327       H  0.94402835  0.33692330  0.22049122     0.17000
O1328       O  0.93830779  0.39491474  0.16535552    -0.59900
H1329       H  0.04634909  0.32652442  0.10824114     0.17100
O1330       O  0.05332496  0.26999575  0.16406225    -0.60000
H1331       H  0.07435430  0.27769850  0.18458054     0.44000
H1332       H  0.91502994  0.38437388  0.14894580     0.44000
C1333       C  0.99120592  0.13317057  0.36138093    -0.05100
C1334       C  0.95539786  0.13380332  0.33799342    -0.32500
C1335       C  0.94780013  0.16601670  0.31103451     0.36800
C1336       C  0.97691397  0.19754428  0.30610707    -0.05400
C1337       C  0.01176854  0.19813183  0.33119692    -0.32400
C1338       C  0.01888155  0.16618308  0.35905430     0.36700
H1339       H  0.93327220  0.10922095  0.34064893     0.17000
O1340       O  0.91306485  0.16502511  0.28738186    -0.59900
H1341       H  0.03474005  0.22170468  0.32722007     0.17100
O1342       O  0.05369828  0.16657350  0.38261611    -0.60000
H1343       H  0.07319110  0.14805667  0.36847744     0.44000
H1344       H  0.89378401  0.18428937  0.30075209     0.44000
C1345       C  0.99372964  0.35698156  0.35422969    -0.05100
C1346       C  0.96352044  0.32648492  0.35702471    -0.32500
C1347       C  0.95953955  0.29590802  0.32675687     0.36800
C1348       C  0.98707369  0.29420947  0.29336111    -0.05400
C1349       C  0.01705295  0.32510267  0.29039926    -0.32400
C1350       C  0.01992595  0.35660341  0.31985014     0.36700
H1351       H  0.94206533  0.32699493  0.38230626     0.17000
O1352       O  0.92697696  0.26946726  0.32863351    -0.59900
H1353       H  0.03862260  0.32473722  0.26524800     0.17100
O1354       O  0.04957967  0.38598763  0.31555547    -0.60000
H1355       H  0.03759141  0.40673282  0.29680628     0.44000
H1356       H  0.93076224  0.25346890  0.35423080     0.44000
loop_ 
_geom_bond_atom_site_label_1 
_geom_bond_atom_site_label_2 
_geom_bond_distance 
_geom_bond_site_symmetry_2 
_ccdc_geom_bond_type 
N1            C5   1.366       .  A
N1            C2   1.367       .  A
N1         C1348   1.461       .  S
C2            C3   1.381       .  A
C2         C1336   1.472       .  S
C3            C4   1.355       .  A
C3            H6   1.083       .  S
C4            C5   1.380       .  A
C4            H7   1.083       .  S
C5         C1321   1.469       .  S
O8           C19   1.294       .  A
O8          Eu44   2.485   1_655  S
O9           C20   1.294       .  A
O9          Eu43   2.486       .  S
O10          C21   1.282       .  A
O10         Eu16   2.408       .  S
O11          C22   1.281       .  A
O11         Eu16   2.398   1_655  S
O12          C22   1.298       .  A
O12         Eu46   2.493       .  S
O13          C21   1.298       .  A
O13         Eu45   2.492       .  S
O14          C20   1.295       .  A
O14         Eu16   2.485       .  S
O15          C19   1.295       .  A
O15         Eu16   2.492   1_655  S
Eu16         O26   2.352   1_455  S
Eu16         O18   2.345       .  S
Eu16         O17   2.352   1_455  S
Eu16         O24   2.352       .  S
O17         Eu46   2.359       .  S
O17         Eu43   2.356   1_655  S
O18         Eu44   2.351       .  S
O18         Eu45   2.365       .  S
C19        C1345   1.500       .  S
C20        C1297   1.493       .  S
C21        C1213   1.469       .  S
C22        C1204   1.466       .  S
H23          O24   0.965       .  S
O24         Eu45   2.351       .  S
O24         Eu43   2.349       .  S
H25          O26   0.966       .  S
O26         Eu44   2.356   1_655  S
O26         Eu46   2.360       .  S
O27          C50   1.294       .  A
O27         Eu43   2.488       .  S
O28          C51   1.294       .  A
O28         Eu44   2.480       .  S
O29          C52   1.296       .  A
O29         Eu45   2.483       .  S
O30          C53   1.299       .  A
O30         Eu46   2.495       .  S
O31          C54   1.299       .  A
O31         Eu46   2.502       .  S
O32          C55   1.296       .  A
O32         Eu45   2.481       .  S
O33          C56   1.283       .  A
O33         Eu47   2.411       .  S
O34          C57   1.284       .  A
O34         Eu47   2.423   1_655  S
O35          C56   1.300       .  A
O35         Eu45   2.504       .  S
O36          C57   1.297       .  A
O36         Eu46   2.484       .  S
O37          C52   1.284       .  A
O37         Eu43   2.414       .  S
O38          C55   1.285       .  A
O38         Eu44   2.425       .  S
O39          C54   1.285       .  A
O39         Eu44   2.431   1_655  S
O40          C53   1.282       .  A
O40         Eu43   2.408   1_655  S
O41          C50   1.294   1_655  A
O41         Eu47   2.478   1_655  S
O42          C51   1.295       .  A
O42         Eu47   2.485       .  S
Eu43         O61   2.357   1_455  S
Eu43         O49   2.353       .  S
Eu44         O48   2.350   1_455  S
Eu44         O59   2.360       .  S
Eu45         O59   2.358       .  S
Eu45         O49   2.361       .  S
Eu46         O48   2.359       .  S
Eu46         O61   2.362       .  S
Eu47         O48   2.348   1_455  S
Eu47         O59   2.357       .  S
Eu47         O61   2.354   1_455  S
Eu47         O49   2.353       .  S
C50        C1309   1.495   1_455  S
C51        C1285   1.495       .  S
C52        C1261   1.473       .  S
C53        C1273   1.468       .  S
C54        C1249   1.473       .  S
C55        C1237   1.466       .  S
C56        C1189   1.475       .  S
C57        C1228   1.466       .  S
H58          O59   0.965       .  S
H60          O61   0.964       .  S
N62          C66   1.364       .  A
N62          C63   1.364       .  A
N62        C1312   1.459       .  S
C63          C64   1.382       .  A
C63        C1165   1.472       .  S
C64          C65   1.362       .  A
C64          H67   1.083       .  S
C65          C66   1.379       .  A
C65          H68   1.083       .  S
C66        C1177   1.468       .  S
N69          C73   1.368       .  A
N69          C70   1.365       .  A
N69        C1300   1.456       .  S
C70          C71   1.379       .  A
C70        C1156   1.475       .  S
C71          C72   1.362       .  A
C71          H74   1.083       .  S
C72          C73   1.383       .  A
C72          H75   1.083       .  S
C73        C1141   1.484       .  S
N76          C80   1.369       .  A
N76          C77   1.369       .  A
N76        C1288   1.460       .  S
C77          C78   1.380       .  A
C77        C1117   1.480       .  S
C78          C79   1.358       .  A
C78          H81   1.083       .  S
C79          C80   1.382       .  A
C79          H82   1.082       .  S
C80        C1132   1.482       .  S
O83          C94   1.295       .  A
O83        Eu119   2.477   1_645  S
O84          C95   1.295       .  A
O84        Eu118   2.483   1_545  S
O85          C96   1.294       .  A
O85         Eu91   2.484   1_655  S
O86          C97   1.294       .  A
O86         Eu91   2.480       .  S
O87          C97   1.294       .  A
O87        Eu121   2.480   1_545  S
O88          C96   1.294       .  A
O88        Eu120   2.484   1_545  S
O89          C95   1.283       .  A
O89         Eu91   2.419       .  S
O90          C94   1.283   1_455  A
O90         Eu91   2.418       .  S
Eu91        O101   2.352       .  S
Eu91         O93   2.344   1_455  S
Eu91         O92   2.346       .  S
Eu91         O99   2.353   1_455  S
O92        Eu121   2.353   1_545  S
O92        Eu118   2.353   1_545  S
O93        Eu119   2.354   1_645  S
O93        Eu120   2.339   1_545  S
C94        C1333   1.462       .  S
C95        C1153   1.463       .  S
C96        C1093   1.498       .  S
C97        C1105   1.491       .  S
H98          O99   0.966       .  S
O99        Eu120   2.360   1_545  S
O99        Eu118   2.363   1_645  S
H100        O101   0.965       .  S
O101       Eu119   2.358   1_545  S
O101       Eu121   2.354   1_545  S
O102        C125   1.294   1_455  A
O102       Eu118   2.476       .  S
O103        C126   1.297       .  A
O103       Eu119   2.492       .  S
O104        C127   1.284       .  A
O104       Eu120   2.421       .  S
O105        C128   1.284       .  A
O105       Eu121   2.414       .  S
O106        C129   1.284   1_565  A
O106       Eu121   2.425       .  S
O107        C130   1.282       .  A
O107       Eu120   2.409       .  S
O108        C131   1.293       .  A
O108       Eu122   2.472   1_655  S
O109        C132   1.294       .  A
O109       Eu122   2.486       .  S
O110        C131   1.293       .  A
O110       Eu120   2.475       .  S
O111        C132   1.295       .  A
O111       Eu121   2.486       .  S
O112        C127   1.297       .  A
O112       Eu118   2.485   1_655  S
O113        C130   1.297       .  A
O113       Eu119   2.491   1_655  S
O114        C129   1.296       .  A
O114       Eu119   2.486   1_545  S
O115        C128   1.295       .  A
O115       Eu118   2.474       .  S
O116        C125   1.284   1_455  A
O116       Eu122   2.422       .  S
O117        C126   1.283       .  A
O117       Eu122   2.416       .  S
Eu118       O136   2.363       .  S
Eu118       O124   2.355   1_455  S
Eu119       O123   2.358       .  S
Eu119       O134   2.358   1_455  S
Eu120       O134   2.363       .  S
Eu120       O124   2.348       .  S
Eu121       O123   2.342       .  S
Eu121       O136   2.356       .  S
Eu122       O123   2.352       .  S
Eu122       O134   2.358   1_455  S
Eu122       O136   2.347       .  S
Eu122       O124   2.352   1_455  S
C125       C1180   1.458       .  S
C126       C1129   1.467       .  S
C127       C1021   1.470       .  S
C128       C1033   1.463       .  S
C129       C1048   1.465       .  S
C130       C1060   1.459       .  S
C131       C1084   1.489       .  S
C132       C1069   1.497       .  S
H133        O134   0.964       .  S
H135        O136   0.965       .  S
N137        C141   1.363       .  A
N137        C138   1.364       .  A
N137       C1108   1.456       .  S
C138        C139   1.381       .  A
C138       C1216   1.471       .  S
C139        C140   1.360       .  A
C139        H142   1.083       .  S
C140        C141   1.380       .  A
C140        H143   1.083       .  S
C141       C1012   1.468       .  S
N144        C148   1.366       .  A
N144        C145   1.365       .  A
N144       C1096   1.461       .  S
C145        C146   1.379       .  A
C145       C1201   1.469       .  S
C146        C147   1.356       .  A
C146        H149   1.083       .  S
C147        C148   1.381       .  A
C147        H150   1.082       .  S
C148        C997   1.473       .  S
N151        C155   1.366       .  A
N151        C152   1.365       .  A
N151       C1081   1.456       .  S
C152        C153   1.379       .  A
C152        C985   1.474       .  S
C153        C154   1.358       .  A
C153        H156   1.083       .  S
C154        C155   1.382       .  A
C154        H157   1.081       .  S
C155       C1225   1.481       .  S
N158        C162   1.368       .  A
N158        C159   1.367       .  A
N158       C1072   1.459       .  S
C159        C160   1.380       .  A
C159       C1192   1.477       .  S
C160        C161   1.356       .  A
C160        H163   1.083       .  S
C161        C162   1.381       .  A
C161        H164   1.082       .  S
C162        C973   1.477       .  S
N165        C169   1.367       .  A
N165        C166   1.361       .  A
N165        C961   1.458       .  S
C166        C167   1.377       .  A
C166       C1057   1.463       .  S
C167        C168   1.360       .  A
C167        H170   1.083       .  S
C168        C169   1.384       .  A
C168        H171   1.082       .  S
C169        C949   1.475       .  S
O172        C183   1.294       .  A
O172       Eu208   2.474       .  S
O173        C184   1.297       .  A
O173       Eu207   2.488       .  S
O174        C185   1.296       .  A
O174       Eu180   2.492       .  S
O175        C186   1.294       .  A
O175       Eu180   2.480       .  S
O176        C186   1.295       .  A
O176       Eu210   2.485       .  S
O177        C185   1.294       .  A
O177       Eu209   2.484       .  S
O178        C184   1.284       .  A
O178       Eu180   2.421       .  S
O179        C183   1.284       .  A
O179       Eu180   2.425   1_545  S
Eu180       O190   2.348   1_565  S
Eu180       O182   2.346   1_565  S
Eu180       O181   2.354       .  S
Eu180       O188   2.362       .  S
O181       Eu210   2.350       .  S
O181       Eu207   2.355       .  S
O182       Eu208   2.351       .  S
O182       Eu209   2.348   1_545  S
C183       C1009   1.461       .  S
C184        C976   1.466       .  S
C185        C913   1.498   1_565  S
C186        C937   1.494       .  S
H187        O188   0.964       .  S
O188       Eu209   2.356       .  S
O188       Eu207   2.374       .  S
H189        O190   0.965       .  S
O190       Eu208   2.358       .  S
O190       Eu210   2.351   1_545  S
O191        C214   1.297       .  A
O191       Eu207   2.485       .  S
O192        C215   1.296       .  A
O192       Eu208   2.480       .  S
O193        C216   1.283       .  A
O193       Eu209   2.415       .  S
O194        C217   1.284       .  A
O194       Eu210   2.413       .  S
O195        C218   1.284       .  A
O195       Eu210   2.424   1_545  S
O196        C219   1.284       .  A
O196       Eu209   2.418   1_545  S
O197        C220   1.296       .  A
O197       Eu211   2.491       .  S
O198        C221   1.294       .  A
O198       Eu211   2.480       .  S
O199        C220   1.293       .  A
O199       Eu209   2.479       .  S
O200        C221   1.293       .  A
O200       Eu210   2.475       .  S
O201        C216   1.294       .  A
O201       Eu207   2.475       .  S
O202        C219   1.296       .  A
O202       Eu208   2.478       .  S
O203        C218   1.296       .  A
O203       Eu208   2.481       .  S
O204        C217   1.299       .  A
O204       Eu207   2.496       .  S
O205        C214   1.284       .  A
O205       Eu211   2.420       .  S
O206        C215   1.284       .  A
O206       Eu211   2.420   1_545  S
Eu207       O225   2.360       .  S
Eu207       O213   2.353       .  S
Eu208       O212   2.356       .  S
Eu208       O223   2.358       .  S
Eu209       O223   2.354   1_565  S
Eu209       O213   2.347       .  S
Eu210       O212   2.352   1_565  S
Eu210       O225   2.355       .  S
Eu211       O212   2.353   1_565  S
Eu211       O223   2.352   1_565  S
Eu211       O225   2.355       .  S
Eu211       O213   2.348       .  S
C214        C988   1.475       .  S
C215       C1000   1.462       .  S
C216        C880   1.461       .  S
C217        C904   1.479       .  S
C218        C889   1.464       .  S
C219        C868   1.467       .  S
C220        C964   1.496       .  S
C221        C925   1.491       .  S
H222        O223   0.966       .  S
H224        O225   0.965       .  S
N226        C230   1.363       .  A
N226        C227   1.363       .  A
N226        C940   1.458       .  S
C227        C228   1.380       .  A
C227        C853   1.468       .  S
C228        C229   1.359       .  A
C228        H231   1.083       .  S
C229        C230   1.380       .  A
C229        H232   1.083       .  S
C230       C1036   1.465       .  S
N233        C237   1.365       .  A
N233        C234   1.366       .  A
N233        C928   1.458       .  S
C234        C235   1.381       .  A
C234       C1024   1.472   1_545  S
C235        C236   1.357       .  A
C235        H238   1.083       .  S
C236        C237   1.380       .  A
C236        H239   1.083       .  S
C237        C841   1.471       .  S
N240        C244   1.366       .  A
N240        C241   1.366       .  A
N240        C916   1.458       .  S
C241        C242   1.381       .  A
C241        C832   1.476       .  S
C242        C243   1.359       .  A
C242        H245   1.083       .  S
C243        C244   1.381       .  A
C243        H246   1.082       .  S
C244       C1045   1.477       .  S
O247        C258   1.296       .  A
O247       Eu283   2.480   1_554  S
O248        C259   1.297   1_565  A
O248       Eu282   2.488   1_554  S
O249        C260   1.293       .  A
O249       Eu255   2.478   1_545  S
O250        C261   1.294       .  A
O250       Eu255   2.483       .  S
O251        C261   1.293       .  A
O251       Eu285   2.474   1_554  S
O252        C260   1.296       .  A
O252       Eu284   2.496   1_554  S
O253        C259   1.284       .  A
O253       Eu255   2.414   1_545  S
O254        C258   1.284       .  A
O254       Eu255   2.418       .  S
Eu255       O265   2.350       .  S
Eu255       O257   2.346   1_565  S
Eu255       O256   2.355       .  S
Eu255       O263   2.351   1_565  S
O256       Eu285   2.350   1_554  S
O256       Eu282   2.357   1_554  S
O257       Eu283   2.356   1_544  S
O257       Eu284   2.353   1_554  S
C258        C952   1.467       .  S
C259        C829   1.475       .  S
C260        C817   1.499       .  S
C261        C805   1.491       .  S
H262        O263   0.965       .  S
O263       Eu284   2.348   1_554  S
O263       Eu282   2.359   1_544  S
H264        O265   0.965       .  S
O265       Eu283   2.353   1_554  S
O265       Eu285   2.347   1_554  S
O266        C289   1.297       .  A
O266       Eu282   2.489       .  S
O267        C290   1.294       .  A
O267       Eu283   2.471       .  S
O268        C291   1.284       .  A
O268       Eu284   2.422       .  S
O269        C292   1.284       .  A
O269       Eu285   2.421       .  S
O270        C293   1.283       .  A
O270       Eu285   2.414       .  S
O271        C294   1.281       .  A
O271       Eu284   2.404       .  S
O272        C295   1.296       .  A
O272       Eu286   2.495   1_545  S
O273        C296   1.296       .  A
O273       Eu286   2.492       .  S
O274        C295   1.293       .  A
O274       Eu284   2.478       .  S
O275        C296   1.293       .  A
O275       Eu285   2.475       .  S
O276        C291   1.296       .  A
O276       Eu282   2.482   1_545  S
O277        C294   1.296       .  A
O277       Eu283   2.484   1_545  S
O278        C293   1.298       .  A
O278       Eu283   2.494       .  S
O279        C292   1.298       .  A
O279       Eu282   2.492       .  S
O280        C289   1.283       .  A
O280       Eu286   2.412       .  S
O281        C290   1.285       .  A
O281       Eu286   2.429       .  S
Eu282       O300   2.354       .  S
Eu282       O288   2.368   1_565  S
Eu283       O287   2.358       .  S
Eu283       O298   2.363   1_565  S
Eu284       O298   2.352       .  S
Eu284       O288   2.356       .  S
Eu285       O287   2.356       .  S
Eu285       O300   2.339       .  S
Eu286       O287   2.353       .  S
Eu286       O298   2.352   1_565  S
Eu286       O300   2.357       .  S
Eu286       O288   2.360   1_565  S
C289        C856   1.458       .  S
C290        C844   1.461   1_565  S
C291        C769   1.465       .  S
C292        C748   1.492   1_556  S
C293        C757   1.469       .  S
C294        C733   1.457   1_556  S
C295        C784   1.496       .  S
C296        C793   1.495       .  S
H297        O298   0.965       .  S
H299        O300   0.964       .  S
N301        C305   1.363       .  A
N301        C302   1.368       .  A
N301        C820   1.461       .  S
C302        C303   1.382       .  A
C302        C865   1.469       .  S
C303        C304   1.355       .  A
C303        H306   1.083       .  S
C304        C305   1.379       .  A
C304        H307   1.083       .  S
C305        C724   1.465       .  S
N308        C312   1.365       .  A
N308        C309   1.364       .  A
N308        C808   1.459       .  S
C309        C310   1.380       .  A
C309        C709   1.468       .  S
C310        C311   1.357       .  A
C310        H313   1.083       .  S
C311        C312   1.381       .  A
C311        H314   1.083       .  S
C312        C877   1.471       .  S
N315        C319   1.368       .  A
N315        C316   1.367       .  A
N315        C796   1.460       .  S
C316        C317   1.381       .  A
C316        C700   1.477       .  S
C317        C318   1.358       .  A
C317        H320   1.082       .  S
C318        C319   1.381       .  A
C318        H321   1.083       .  S
C319        C901   1.477       .  S
N322        C326   1.365       .  A
N322        C323   1.364       .  A
N322        C781   1.457       .  S
C323        C324   1.380       .  A
C323        C892   1.473       .  S
C324        C325   1.359       .  A
C324        H327   1.083       .  S
C325        C326   1.382       .  A
C325        H328   1.083       .  S
C326        C688   1.473       .  S
O329        C340   1.298       .  A
O329       Eu365   2.490   1_554  S
O330        C341   1.300       .  A
O330       Eu364   2.503   1_554  S
O331        C342   1.294       .  A
O331       Eu337   2.482   1_455  S
O332        C343   1.294       .  A
O332       Eu337   2.477       .  S
O333        C343   1.295       .  A
O333       Eu367   2.493   1_554  S
O334        C342   1.294       .  A
O334       Eu366   2.480   1_554  S
O335        C341   1.285       .  A
O335       Eu337   2.423   1_455  S
O336        C340   1.282       .  A
O336       Eu337   2.405       .  S
Eu337       O347   2.358       .  S
Eu337       O339   2.350   1_655  S
Eu337       O338   2.343       .  S
Eu337       O345   2.347   1_655  S
O338       Eu367   2.354   1_554  S
O338       Eu364   2.354   1_654  S
O339       Eu365   2.365   1_454  S
O339       Eu366   2.354   1_554  S
C340       C1324   1.465       .  S
C341       C1120   1.482       .  S
C342        C661   1.494       .  S
C343        C673   1.497       .  S
H344        O345   0.965       .  S
O345       Eu366   2.343   1_554  S
O345       Eu364   2.354   1_554  S
H346        O347   0.966       .  S
O347       Eu365   2.359   1_554  S
O347       Eu367   2.347   1_554  S
O348        C371   1.298       .  A
O348       Eu364   2.490   1_655  S
O349        C372   1.298       .  A
O349       Eu365   2.491       .  S
O350        C373   1.288       .  A
O350       Eu366   2.436       .  S
O351        C374   1.282   1_556  A
O351       Eu367   2.406       .  S
O352        C375   1.284       .  A
O352       Eu367   2.422       .  S
O353        C376   1.284       .  A
O353       Eu366   2.420       .  S
O354        C377   1.295       .  A
O354       Eu368   2.491   1_455  S
O355        C378   1.294       .  A
O355       Eu368   2.480       .  S
O356        C377   1.293       .  A
O356       Eu366   2.475       .  S
O357        C378   1.294       .  A
O357       Eu367   2.484       .  S
O358        C373   1.299       .  A
O358       Eu364   2.497       .  S
O359        C376   1.294       .  A
O359       Eu365   2.472   1_455  S
O360        C375   1.297       .  A
O360       Eu365   2.490       .  S
O361        C374   1.298       .  A
O361       Eu364   2.495   1_654  S
O362        C371   1.285       .  A
O362       Eu368   2.423       .  S
O363        C372   1.289   1_455  A
O363       Eu368   2.446   1_455  S
Eu364       O382   2.369   1_455  S
Eu364       O370   2.369       .  S
Eu365       O369   2.359       .  S
Eu365       O380   2.359   1_655  S
Eu366       O380   2.354       .  S
Eu366       O370   2.354       .  S
Eu367       O369   2.355       .  S
Eu367       O382   2.355       .  S
Eu368       O369   2.360       .  S
Eu368       O380   2.345   1_655  S
Eu368       O382   2.364       .  S
Eu368       O370   2.364   1_655  S
C371       C1168   1.474       .  S
C372       C1144   1.487   1_655  S
C373        C613   1.492   1_556  S
C374        C589   1.464       .  S
C375        C601   1.477       .  S
C376        C625   1.460       .  S
C377        C649   1.491       .  S
C378        C637   1.492       .  S
H379        O380   0.964       .  S
H381        O382   0.965       .  S
N383        C387   1.368       .  A
N383        C384   1.371       .  A
N383        C676   1.458       .  S
C384        C385   1.383       .  A
C384        C577   1.486       .  S
C385        C386   1.360       .  A
C385        H388   1.083       .  S
C386        C387   1.379       .  A
C386        H389   1.082       .  S
C387       C1252   1.482       .  S
N390        C394   1.368       .  A
N390        C391   1.363       .  A
N390        C664   1.458       .  S
C391        C392   1.377       .  A
C391        C565   1.468       .  S
C392        C393   1.360       .  A
C392        H395   1.083       .  S
C393        C394   1.383       .  A
C393        H396   1.082       .  S
C394       C1240   1.477       .  S
N397        C401   1.362       .  A
N397        C398   1.360       .  A
N397        C652   1.453       .  S
C398        C399   1.380       .  A
C398       C1264   1.466       .  S
C399        C400   1.362       .  A
C399        H402   1.083       .  S
C400        C401   1.382       .  A
C400        H403   1.082       .  S
C401        C553   1.474       .  S
N404        C408   1.365       .  A
N404        C405   1.363       .  A
N404        C640   1.456       .  S
C405        C406   1.381       .  A
C405       C1276   1.472       .  S
C406        C407   1.359       .  A
C406        H409   1.082       .  S
C407        C408   1.381       .  A
C407        H410   1.083       .  S
C408        C544   1.474       .  S
N411        C415   1.365       .  A
N411        C412   1.364       .  A
N411        C529   1.459       .  S
C412        C413   1.380       .  A
C412        C628   1.466       .  S
C413        C414   1.358       .  A
C413        H416   1.083       .  S
C414        C415   1.380       .  A
C414        H417   1.083       .  S
C415        C772   1.469       .  S
O418        C429   1.296       .  A
O418       Eu454   2.480       .  S
O419        C430   1.297       .  A
O419       Eu453   2.482       .  S
O420        C431   1.294       .  A
O420       Eu426   2.483       .  S
O421        C432   1.294       .  A
O421       Eu426   2.478       .  S
O422        C432   1.293       .  A
O422       Eu456   2.478       .  S
O423        C431   1.294       .  A
O423       Eu455   2.486       .  S
O424        C430   1.285       .  A
O424       Eu426   2.423       .  S
O425        C429   1.281       .  A
O425       Eu426   2.404   1_554  S
Eu426       O436   2.358   1_556  S
Eu426       O428   2.348   1_556  S
Eu426       O427   2.354       .  S
Eu426       O434   2.337       .  S
O427       Eu456   2.355       .  S
O427       Eu453   2.361       .  S
O428       Eu454   2.361       .  S
O428       Eu455   2.354   1_554  S
C429        C721   1.456       .  S
C430        C685   1.473       .  S
C431        C532   1.497       .  S
C432        C496   1.490   1_556  S
H433        O434   0.965       .  S
O434       Eu455   2.345       .  S
O434       Eu453   2.352       .  S
H435        O436   0.962       .  S
O436       Eu454   2.363       .  S
O436       Eu456   2.353   1_554  S
O437        C460   1.295       .  A
O437       Eu453   2.481       .  S
O438        C461   1.297       .  A
O438       Eu454   2.488       .  S
O439        C462   1.283       .  A
O439       Eu455   2.419       .  S
O440        C463   1.285       .  A
O440       Eu456   2.425       .  S
O441        C464   1.286       .  A
O441       Eu456   2.428   1_554  S
O442        C465   1.283       .  A
O442       Eu455   2.413   1_554  S
O443        C466   1.293       .  A
O443       Eu457   2.478       .  S
O444        C467   1.295       .  A
O444       Eu457   2.487       .  S
O445        C466   1.293       .  A
O445       Eu455   2.480       .  S
O446        C467   1.293       .  A
O446       Eu456   2.477       .  S
O447        C462   1.295       .  A
O447       Eu453   2.483       .  S
O448        C465   1.298       .  A
O448       Eu454   2.493       .  S
O449        C464   1.300       .  A
O449       Eu454   2.504       .  S
O450        C463   1.296       .  A
O450       Eu453   2.477       .  S
O451        C460   1.284       .  A
O451       Eu457   2.419       .  S
O452        C461   1.282       .  A
O452       Eu457   2.404   1_554  S
Eu453       O471   2.365       .  S
Eu453       O459   2.359       .  S
Eu454       O458   2.353       .  S
Eu454       O469   2.355       .  S
Eu455       O469   2.353   1_556  S
Eu455       O459   2.352       .  S
Eu456       O458   2.348   1_556  S
Eu456       O471   2.359       .  S
Eu457       O458   2.346   1_556  S
Eu457       O469   2.353   1_556  S
Eu457       O471   2.343       .  S
Eu457       O459   2.357       .  S
C460        C697   1.463       .  S
C461        C712   1.465       .  S
C462        C556   1.461       .  S
C463        C541   1.462       .  S
C464        C580   1.488       .  S
C465        C568   1.466       .  S
C466        C505   1.486       .  S
C467        C517   1.494   1_556  S
H468        O469   0.965       .  S
H470        O471   0.965       .  S
N472        C476   1.364       .  A
N472        C473   1.363       .  A
N472        C520   1.456       .  S
C473        C474   1.379       .  A
C473        C760   1.469       .  S
C474        C475   1.362       .  A
C474        H477   1.083       .  S
C475        C476   1.382       .  A
C475        H478   1.083       .  S
C476        C592   1.474       .  S
N479        C483   1.364       .  A
N479        C480   1.371       .  A
N479        C508   1.450       .  S
C480        C481   1.385       .  A
C480        C745   1.503       .  S
C481        C482   1.363       .  A
C481        H484   1.081       .  S
C482        C483   1.379       .  A
C482        H485   1.083       .  S
C483        C616   1.484       .  S
N486        C490   1.363       .  A
N486        C487   1.366       .  A
N486        C493   1.458       .  S
C487        C488   1.381       .  A
C487        C604   1.475       .  S
C488        C489   1.359       .  A
C488        H491   1.083       .  S
C489        C490   1.380       .  A
C489        H492   1.082       .  S
C490        C736   1.472       .  S
C493        C494   1.408   1_554  A
C493        C498   1.417       .  A
C494        C495   1.410       .  A
C494        H499   1.082       .  S
C495        C496   1.411   1_556  A
C495        O500   1.371       .  S
C496        C497   1.401       .  A
C497        C498   1.405       .  A
C497        H501   1.084       .  S
C498        O502   1.372       .  S
O500        H504   0.991       .  S
O502        H503   0.992       .  S
C505        C506   1.402   1_556  A
C505        C510   1.411       .  A
C506        C507   1.404       .  A
C506        H511   1.084       .  S
C507        C508   1.413       .  A
C507        O512   1.373       .  S
C508        C509   1.406   1_554  A
C509        C510   1.412       .  A
C509        H513   1.083       .  S
C510        O514   1.371       .  S
O512        H516   0.992       .  S
O514        H515   0.992       .  S
C517        C518   1.405       .  A
C517        C522   1.409   1_554  A
C518        C519   1.407       .  A
C518        H523   1.083       .  S
C519        C520   1.415       .  A
C519        O524   1.371       .  S
C520        C521   1.407   1_554  A
C521        C522   1.407       .  A
C521        H525   1.082       .  S
C522        O526   1.370       .  S
O524        H528   0.992       .  S
O526        H527   0.992       .  S
C529        C530   1.407   1_556  A
C529        C534   1.416       .  A
C530        C531   1.407       .  A
C530        H535   1.082       .  S
C531        C532   1.410   1_554  A
C531        O536   1.371       .  S
C532        C533   1.406       .  A
C533        C534   1.413       .  A
C533        H537   1.083       .  S
C534        O538   1.372       .  S
O536        H540   0.992       .  S
O538        H539   0.992       .  S
C541        C542   1.403       .  A
C541        C546   1.403       .  A
C542        C543   1.401       .  A
C542        H547   1.084       .  S
C543        C544   1.408       .  A
C543        O548   1.371       .  S
C544        C545   1.405       .  A
C545        C546   1.393       .  A
C545        H549   1.084       .  S
C546        O550   1.373       .  S
O548        H552   0.992       .  S
O550        H551   0.992       .  S
C553        C554   1.405       .  A
C553        C558   1.410       .  A
C554        C555   1.394       .  A
C554        H559   1.084       .  S
C555        C556   1.404       .  A
C555        O560   1.373       .  S
C556        C557   1.401       .  A
C557        C558   1.400       .  A
C557        H561   1.084       .  S
C558        O562   1.371       .  S
O560        H564   0.992       .  S
O562        H563   0.992       .  S
C565        C566   1.399       .  A
C565        C570   1.409       .  A
C566        C567   1.400       .  A
C566        H571   1.084       .  S
C567        C568   1.410       .  A
C567        O572   1.372       .  S
C568        C569   1.398       .  A
C569        C570   1.398       .  A
C569        H573   1.083       .  S
C570        O574   1.372       .  S
O572        H576   0.992       .  S
O574        H575   0.992       .  S
C577        C578   1.410       .  A
C577        C582   1.404       .  A
C578        C579   1.398       .  A
C578        H583   1.084       .  S
C579        C580   1.404       .  A
C579        O584   1.371       .  S
C580        C581   1.414       .  A
C581        C582   1.406       .  A
C581        H585   1.083       .  S
C582        O586   1.371       .  S
O584        H588   0.992       .  S
O586        H587   0.992       .  S
C589        C590   1.403   1_554  A
C589        C594   1.403       .  A
C590        C591   1.399       .  A
C590        H595   1.084       .  S
C591        C592   1.408   1_556  A
C591        O596   1.371       .  S
C592        C593   1.406       .  A
C593        C594   1.396       .  A
C593        H597   1.084       .  S
C594        O598   1.371       .  S
O596        H600   0.992       .  S
O598        H599   0.992       .  S
C601        C602   1.411   1_556  A
C601        C606   1.403       .  A
C602        C603   1.402       .  A
C602        H607   1.083       .  S
C603        C604   1.403       .  A
C603        O608   1.371       .  S
C604        C605   1.408   1_554  A
C605        C606   1.395       .  A
C605        H609   1.084       .  S
C606        O610   1.371       .  S
O608        H612   0.992       .  S
O610        H611   0.992       .  S
C613        C614   1.414       .  A
C613        C618   1.407   1_554  A
C614        C615   1.406       .  A
C614        H619   1.082       .  S
C615        C616   1.403       .  A
C615        O620   1.371       .  S
C616        C617   1.408   1_554  A
C617        C618   1.400       .  A
C617        H621   1.084       .  S
C618        O622   1.371       .  S
O620        H624   0.992       .  S
O622        H623   0.991       .  S
C625        C626   1.404   1_556  A
C625        C630   1.402       .  A
C626        C627   1.399       .  A
C626        H631   1.084       .  S
C627        C628   1.405   1_554  A
C627        O632   1.371       .  S
C628        C629   1.404       .  A
C629        C630   1.393       .  A
C629        H633   1.084       .  S
C630        O634   1.372       .  S
O632        H636   0.992       .  S
O634        H635   0.992       .  S
C637        C638   1.405       .  A
C637        C642   1.410       .  A
C638        C639   1.409       .  A
C638        H643   1.084       .  S
C639        C640   1.413       .  A
C639        O644   1.372       .  S
C640        C641   1.408       .  A
C641        C642   1.409       .  A
C641        H645   1.082       .  S
C642        O646   1.371       .  S
O644        H648   0.992       .  S
O646        H647   0.992       .  S
C649        C650   1.407       .  A
C649        C654   1.409       .  A
C650        C651   1.414       .  A
C650        H655   1.083       .  S
C651        C652   1.412       .  A
C651        O656   1.372       .  S
C652        C653   1.405       .  A
C653        C654   1.403       .  A
C653        H657   1.083       .  S
C654        O658   1.372       .  S
O656        H660   0.992       .  S
O658        H659   0.992       .  S
C661        C662   1.404       .  A
C661        C666   1.410       .  A
C662        C663   1.409       .  A
C662        H667   1.084       .  S
C663        C664   1.414       .  A
C663        O668   1.371       .  S
C664        C665   1.409       .  A
C665        C666   1.409       .  A
C665        H669   1.082       .  S
C666        O670   1.371       .  S
O668        H672   0.992       .  S
O670        H671   0.992       .  S
C673        C674   1.403       .  A
C673        C678   1.414       .  A
C674        C675   1.403       .  A
C674        H679   1.084       .  S
C675        C676   1.415       .  A
C675        O680   1.370       .  S
C676        C677   1.409       .  A
C677        C678   1.415       .  A
C677        H681   1.083       .  S
C678        O682   1.371       .  S
O680        H684   0.992       .  S
O682        H683   0.992       .  S
C685        C686   1.398       .  A
C685        C690   1.415       .  A
C686        C687   1.393       .  A
C686        H691   1.084       .  S
C687        C688   1.411       .  A
C687        O692   1.372       .  S
C688        C689   1.400       .  A
C689        C690   1.402       .  A
C689        H693   1.083       .  S
C690        O694   1.372       .  S
O692        H696   0.992       .  S
O694        H695   0.992       .  S
C697        C698   1.398       .  A
C697        C702   1.406       .  A
C698        C699   1.398       .  A
C698        H703   1.084       .  S
C699        C700   1.412       .  A
C699        O704   1.374       .  S
C700        C701   1.402       .  A
C701        C702   1.400       .  A
C701        H705   1.083       .  S
C702        O706   1.370       .  S
O704        H708   0.992       .  S
O706        H707   0.991       .  S
C709        C710   1.406       .  A
C709        C714   1.404       .  A
C710        C711   1.393       .  A
C710        H715   1.084       .  S
C711        C712   1.402       .  A
C711        O716   1.372       .  S
C712        C713   1.407       .  A
C713        C714   1.398       .  A
C713        H717   1.084       .  S
C714        O718   1.372       .  S
O716        H720   0.992       .  S
O718        H719   0.992       .  S
C721        C722   1.404       .  A
C721        C726   1.400       .  A
C722        C723   1.400       .  A
C722        H727   1.083       .  S
C723        C724   1.406       .  A
C723        O728   1.371       .  S
C724        C725   1.402       .  A
C725        C726   1.390       .  A
C725        H729   1.084       .  S
C726        O730   1.371       .  S
O728        H732   0.992       .  S
O730        H731   0.991       .  S
C733        C734   1.396       .  A
C733        C738   1.408   1_554  A
C734        C735   1.393       .  A
C734        H739   1.084       .  S
C735        C736   1.408       .  A
C735        O740   1.373       .  S
C736        C737   1.403   1_554  A
C737        C738   1.400       .  A
C737        H741   1.083       .  S
C738        O742   1.372       .  S
O740        H744   0.992       .  S
O742        H743   0.992       .  S
C745        C746   1.403       .  A
C745        C750   1.421       .  A
C746        C747   1.402       .  A
C746        H751   1.074       .  S
C747        C748   1.419       .  A
C747        O752   1.373   1_554  S
C748        C749   1.399       .  A
C749        C750   1.401       .  A
C749        H753   1.083       .  S
C750        O754   1.373       .  S
O752        H756   0.991   1_556  S
O754        H755   0.993       .  S
C757        C758   1.407   1_556  A
C757        C762   1.403       .  A
C758        C759   1.399       .  A
C758        H763   1.084       .  S
C759        C760   1.402       .  A
C759        O764   1.372       .  S
C760        C761   1.406   1_554  A
C761        C762   1.398       .  A
C761        H765   1.084       .  S
C762        O766   1.372       .  S
O764        H768   0.992       .  S
O766        H767   0.992       .  S
C769        C770   1.405       .  A
C769        C774   1.403   1_556  A
C770        C771   1.401       .  A
C770        H775   1.084       .  S
C771        C772   1.405       .  A
C771        O776   1.372       .  S
C772        C773   1.405   1_556  A
C773        C774   1.394       .  A
C773        H777   1.084       .  S
C774        O778   1.372       .  S
O776        H780   0.992       .  S
O778        H779   0.992       .  S
C781        C782   1.407       .  A
C781        C786   1.413       .  A
C782        C783   1.407       .  A
C782        H787   1.083       .  S
C783        C784   1.408       .  A
C783        O788   1.371       .  S
C784        C785   1.408       .  A
C785        C786   1.414       .  A
C785        H789   1.083       .  S
C786        O790   1.372       .  S
O788        H792   0.992       .  S
O790        H791   0.992       .  S
C793        C794   1.407       .  A
C793        C798   1.410       .  A
C794        C795   1.411       .  A
C794        H799   1.083       .  S
C795        C796   1.414       .  A
C795        O800   1.369       .  S
C796        C797   1.410       .  A
C797        C798   1.407       .  A
C797        H801   1.083       .  S
C798        O802   1.373       .  S
O800        H804   0.992       .  S
O802        H803   0.991       .  S
C805        C806   1.405       .  A
C805        C810   1.409       .  A
C806        C807   1.408       .  A
C806        H811   1.084       .  S
C807        C808   1.417       .  A
C807        O812   1.370       .  S
C808        C809   1.408       .  A
C809        C810   1.406       .  A
C809        H813   1.082       .  S
C810        O814   1.371       .  S
O812        H816   0.992       .  S
O814        H815   0.992       .  S
C817        C818   1.407       .  A
C817        C822   1.410       .  A
C818        C819   1.412       .  A
C818        H823   1.083       .  S
C819        C820   1.414       .  A
C819        O824   1.372       .  S
C820        C821   1.412       .  A
C821        C822   1.410       .  A
C821        H825   1.082       .  S
C822        O826   1.372       .  S
O824        H828   0.992       .  S
O826        H827   0.992       .  S
C829        C830   1.411       .  A
C829        C834   1.403   1_545  A
C830        C831   1.402       .  A
C830        H835   1.084       .  S
C831        C832   1.403       .  A
C831        O836   1.371       .  S
C832        C833   1.408   1_545  A
C833        C834   1.395       .  A
C833        H837   1.084       .  S
C834        O838   1.372       .  S
O836        H840   0.992       .  S
O838        H839   0.992       .  S
C841        C842   1.403       .  A
C841        C846   1.408   1_545  A
C842        C843   1.392       .  A
C842        H847   1.084       .  S
C843        C844   1.402       .  A
C843        O848   1.373       .  S
C844        C845   1.404   1_545  A
C845        C846   1.401       .  A
C845        H849   1.084       .  S
C846        O850   1.371       .  S
O848        H852   0.992       .  S
O850        H851   0.992       .  S
C853        C854   1.403       .  A
C853        C858   1.407   1_565  A
C854        C855   1.393       .  A
C854        H859   1.084       .  S
C855        C856   1.403       .  A
C855        O860   1.372       .  S
C856        C857   1.401   1_565  A
C857        C858   1.399       .  A
C857        H861   1.083       .  S
C858        O862   1.372       .  S
O860        H864   0.992       .  S
O862        H863   0.992       .  S
C865        C866   1.406       .  A
C865        C870   1.403       .  A
C866        C867   1.391       .  A
C866        H871   1.084       .  S
C867        C868   1.402       .  A
C867        O872   1.372       .  S
C868        C869   1.408       .  A
C869        C870   1.402       .  A
C869        H873   1.084       .  S
C870        O874   1.372       .  S
O872        H876   0.992       .  S
O874        H875   0.992       .  S
C877        C878   1.406       .  A
C877        C882   1.406       .  A
C878        C879   1.394       .  A
C878        H883   1.084       .  S
C879        C880   1.402       .  A
C879        O884   1.372       .  S
C880        C881   1.404       .  A
C881        C882   1.397       .  A
C881        H885   1.084       .  S
C882        O886   1.371       .  S
O884        H888   0.992       .  S
O886        H887   0.992       .  S
C889        C890   1.398       .  A
C889        C894   1.408       .  A
C890        C891   1.395       .  A
C890        H895   1.084       .  S
C891        C892   1.410       .  A
C891        O896   1.372       .  S
C892        C893   1.402       .  A
C893        C894   1.401       .  A
C893        H897   1.084       .  S
C894        O898   1.371       .  S
O896        H900   0.992       .  S
O898        H899   0.992       .  S
C901        C902   1.410       .  A
C901        C906   1.402       .  A
C902        C903   1.398       .  A
C902        H907   1.084       .  S
C903        C904   1.403       .  A
C903        O908   1.372       .  S
C904        C905   1.410       .  A
C905        C906   1.401       .  A
C905        H909   1.080       .  S
C906        O910   1.372       .  S
O908        H912   0.992       .  S
O910        H911   0.992       .  S
C913        C914   1.405       .  A
C913        C918   1.413   1_545  A
C914        C915   1.408       .  A
C914        H919   1.084       .  S
C915        C916   1.413       .  A
C915        O920   1.372       .  S
C916        C917   1.409   1_545  A
C917        C918   1.414       .  A
C917        H921   1.082       .  S
C918        O922   1.371       .  S
O920        H924   0.992       .  S
O922        H923   0.992       .  S
C925        C926   1.402   1_565  A
C925        C930   1.410       .  A
C926        C927   1.407       .  A
C926        H931   1.082       .  S
C927        C928   1.416       .  A
C927        O932   1.372       .  S
C928        C929   1.409   1_545  A
C929        C930   1.410       .  A
C929        H933   1.082       .  S
C930        O934   1.371       .  S
O932        H936   0.992       .  S
O934        H935   0.992       .  S
C937        C938   1.405   1_565  A
C937        C942   1.408       .  A
C938        C939   1.413       .  A
C938        H943   1.082       .  S
C939        C940   1.415   1_545  A
C939        O944   1.372       .  S
C940        C941   1.408       .  A
C941        C942   1.404       .  A
C941        H945   1.083       .  S
C942        O946   1.369       .  S
O944        H948   0.992       .  S
O946        H947   0.993       .  S
C949        C950   1.401   1_565  A
C949        C954   1.412       .  A
C950        C951   1.402       .  A
C950        H955   1.083       .  S
C951        C952   1.411   1_545  A
C951        O956   1.372       .  S
C952        C953   1.397       .  A
C953        C954   1.395       .  A
C953        H957   1.084       .  S
C954        O958   1.374       .  S
O956        H960   0.992       .  S
O958        H959   0.992       .  S
C961        C962   1.410   1_565  A
C961        C966   1.412       .  A
C962        C963   1.409       .  A
C962        H967   1.081       .  S
C963        C964   1.410   1_545  A
C963        O968   1.372       .  S
C964        C965   1.407       .  A
C965        C966   1.411       .  A
C965        H969   1.084       .  S
C966        O970   1.372       .  S
O968        H972   0.992       .  S
O970        H971   0.992       .  S
C973        C974   1.402       .  A
C973        C978   1.412       .  A
C974        C975   1.403       .  A
C974        H979   1.083       .  S
C975        C976   1.410       .  A
C975        O980   1.372       .  S
C976        C977   1.396       .  A
C977        C978   1.396       .  A
C977        H981   1.084       .  S
C978        O982   1.374       .  S
O980        H984   0.992       .  S
O982        H983   0.992       .  S
C985        C986   1.406       .  A
C985        C990   1.403       .  A
C986        C987   1.394       .  A
C986        H991   1.084       .  S
C987        C988   1.403       .  A
C987        O992   1.372       .  S
C988        C989   1.411       .  A
C989        C990   1.403       .  A
C989        H993   1.084       .  S
C990        O994   1.372       .  S
O992        H996   0.992       .  S
O994        H995   0.992       .  S
C997        C998   1.403       .  A
C997       C1002   1.410       .  A
C998        C999   1.403       .  A
C998       H1003   1.084       .  S
C999       C1000   1.409       .  A
C999       O1004   1.372       .  S
C1000      C1001   1.396       .  A
C1001      C1002   1.394       .  A
C1001      H1005   1.084       .  S
C1002      O1006   1.373       .  S
O1004      H1008   0.992       .  S
O1006      H1007   0.992       .  S
C1009      C1010   1.396       .  A
C1009      C1014   1.408       .  A
C1010      C1011   1.393       .  A
C1010      H1015   1.083       .  S
C1011      C1012   1.407       .  A
C1011      O1016   1.373       .  S
C1012      C1013   1.402       .  A
C1013      C1014   1.402       .  A
C1013      H1017   1.084       .  S
C1014      O1018   1.371       .  S
O1016      H1020   0.992       .  S
O1018      H1019   0.991       .  S
C1021      C1022   1.407   1_565  A
C1021      C1026   1.402       .  A
C1022      C1023   1.401       .  A
C1022      H1027   1.084       .  S
C1023      C1024   1.403   1_545  A
C1023      O1028   1.371       .  S
C1024      C1025   1.407       .  A
C1025      C1026   1.395       .  A
C1025      H1029   1.084       .  S
C1026      O1030   1.371       .  S
O1028      H1032   0.992       .  S
O1030      H1031   0.991       .  S
C1033      C1034   1.407       .  A
C1033      C1038   1.402   1_565  A
C1034      C1035   1.398       .  A
C1034      H1039   1.084       .  S
C1035      C1036   1.402       .  A
C1035      O1040   1.372       .  S
C1036      C1037   1.405   1_565  A
C1037      C1038   1.393       .  A
C1037      H1041   1.084       .  S
C1038      O1042   1.372       .  S
O1040      H1044   0.992       .  S
O1042      H1043   0.992       .  S
C1045      C1046   1.404   1_545  A
C1045      C1050   1.410       .  A
C1046      C1047   1.404       .  A
C1046      H1051   1.083       .  S
C1047      C1048   1.407   1_565  A
C1047      O1052   1.371       .  S
C1048      C1049   1.398       .  A
C1049      C1050   1.397       .  A
C1049      H1053   1.084       .  S
C1050      O1054   1.373       .  S
O1052      H1056   0.992       .  S
O1054      H1055   0.992       .  S
C1057      C1058   1.401       .  A
C1057      C1062   1.407   1_565  A
C1058      C1059   1.397       .  A
C1058      H1063   1.084       .  S
C1059      C1060   1.405       .  A
C1059      O1064   1.372       .  S
C1060      C1061   1.400   1_565  A
C1061      C1062   1.398       .  A
C1061      H1065   1.084       .  S
C1062      O1066   1.372       .  S
O1064      H1068   0.992       .  S
O1066      H1067   0.992       .  S
C1069      C1070   1.404       .  A
C1069      C1074   1.412       .  A
C1070      C1071   1.409       .  A
C1070      H1075   1.083       .  S
C1071      C1072   1.413       .  A
C1071      O1076   1.372       .  S
C1072      C1073   1.410       .  A
C1073      C1074   1.413       .  A
C1073      H1077   1.083       .  S
C1074      O1078   1.371       .  S
O1076      H1080   0.992       .  S
O1078      H1079   0.992       .  S
C1081      C1082   1.409       .  A
C1081      C1086   1.415       .  A
C1082      C1083   1.408       .  A
C1082      H1087   1.081       .  S
C1083      C1084   1.410       .  A
C1083      O1088   1.371       .  S
C1084      C1085   1.403       .  A
C1085      C1086   1.404       .  A
C1085      H1089   1.083       .  S
C1086      O1090   1.372       .  S
O1088      H1092   0.992       .  S
O1090      H1091   0.992       .  S
C1093      C1094   1.406       .  A
C1093      C1098   1.411       .  A
C1094      C1095   1.411       .  A
C1094      H1099   1.084       .  S
C1095      C1096   1.416       .  A
C1095      O1100   1.372       .  S
C1096      C1097   1.409       .  A
C1097      C1098   1.410       .  A
C1097      H1101   1.082       .  S
C1098      O1102   1.371       .  S
O1100      H1104   0.992       .  S
O1102      H1103   0.992       .  S
C1105      C1106   1.404       .  A
C1105      C1110   1.411       .  A
C1106      C1107   1.408       .  A
C1106      H1111   1.084       .  S
C1107      C1108   1.414       .  A
C1107      O1112   1.372       .  S
C1108      C1109   1.408       .  A
C1109      C1110   1.409       .  A
C1109      H1113   1.082       .  S
C1110      O1114   1.372       .  S
O1112      H1116   0.992       .  S
O1114      H1115   0.992       .  S
C1117      C1118   1.408   1_455  A
C1117      C1122   1.404       .  A
C1118      C1119   1.397       .  A
C1118      H1123   1.084       .  S
C1119      C1120   1.403   1_655  A
C1119      O1124   1.371       .  S
C1120      C1121   1.412       .  A
C1121      C1122   1.406       .  A
C1121      H1125   1.084       .  S
C1122      O1126   1.372       .  S
O1124      H1128   0.992       .  S
O1126      H1127   0.991       .  S
C1129      C1130   1.397       .  A
C1129      C1134   1.409   1_455  A
C1130      C1131   1.396       .  A
C1130      H1135   1.084       .  S
C1131      C1132   1.414       .  A
C1131      O1136   1.372       .  S
C1132      C1133   1.403       .  A
C1133      C1134   1.402   1_455  A
C1133      H1137   1.083   1_455  S
C1134      O1138   1.371       .  S
O1136      H1140   0.992       .  S
O1138      H1139   0.992       .  S
C1141      C1142   1.408   1_455  A
C1141      C1146   1.405       .  A
C1142      C1143   1.399       .  A
C1142      H1147   1.084       .  S
C1143      C1144   1.406   1_655  A
C1143      O1148   1.371       .  S
C1144      C1145   1.411       .  A
C1145      C1146   1.407       .  A
C1145      H1149   1.083       .  S
C1146      O1150   1.372       .  S
O1148      H1152   0.992       .  S
O1150      H1151   0.992       .  S
C1153      C1154   1.399       .  A
C1153      C1158   1.406   1_455  A
C1154      C1155   1.398       .  A
C1154      H1159   1.084       .  S
C1155      C1156   1.410       .  A
C1155      O1160   1.373       .  S
C1156      C1157   1.403   1_455  A
C1157      C1158   1.402       .  A
C1157      H1161   1.084       .  S
C1158      O1162   1.371       .  S
O1160      H1164   0.992       .  S
O1162      H1163   0.992       .  S
C1165      C1166   1.406   1_655  A
C1165      C1170   1.403       .  A
C1166      C1167   1.396       .  A
C1166      H1171   1.084       .  S
C1167      C1168   1.403   1_455  A
C1167      O1172   1.371       .  S
C1168      C1169   1.409       .  A
C1169      C1170   1.401       .  A
C1169      H1173   1.084       .  S
C1170      O1174   1.372       .  S
O1172      H1176   0.992       .  S
O1174      H1175   0.992       .  S
C1177      C1178   1.404   1_655  A
C1177      C1182   1.407       .  A
C1178      C1179   1.401       .  A
C1178      H1183   1.084       .  S
C1179      C1180   1.405   1_455  A
C1179      O1184   1.371       .  S
C1180      C1181   1.397       .  A
C1181      C1182   1.395       .  A
C1181      H1185   1.083       .  S
C1182      O1186   1.373       .  S
O1184      H1188   0.992       .  S
O1186      H1187   0.992       .  S
C1189      C1190   1.410       .  A
C1189      C1194   1.401       .  A
C1190      C1191   1.402       .  A
C1190      H1195   1.083       .  S
C1191      C1192   1.405       .  A
C1191      O1196   1.372       .  S
C1192      C1193   1.408       .  A
C1193      C1194   1.395       .  A
C1193      H1197   1.084       .  S
C1194      O1198   1.371       .  S
O1196      H1200   0.992       .  S
O1198      H1199   0.992       .  S
C1201      C1202   1.408       .  A
C1201      C1206   1.402       .  A
C1202      C1203   1.395       .  A
C1202      H1207   1.084       .  S
C1203      C1204   1.401       .  A
C1203      O1208   1.372       .  S
C1204      C1205   1.408       .  A
C1205      C1206   1.398       .  A
C1205      H1209   1.083       .  S
C1206      O1210   1.372       .  S
O1208      H1212   0.992       .  S
O1210      H1211   0.992       .  S
C1213      C1214   1.408       .  A
C1213      C1218   1.402       .  A
C1214      C1215   1.402       .  A
C1214      H1219   1.084       .  S
C1215      C1216   1.404       .  A
C1215      O1220   1.372       .  S
C1216      C1217   1.405       .  A
C1217      C1218   1.394       .  A
C1217      H1221   1.084       .  S
C1218      O1222   1.372       .  S
O1220      H1224   0.992       .  S
O1222      H1223   0.992       .  S
C1225      C1226   1.406       .  A
C1225      C1230   1.410       .  A
C1226      C1227   1.406       .  A
C1226      H1231   1.083       .  S
C1227      C1228   1.408       .  A
C1227      O1232   1.371       .  S
C1228      C1229   1.394       .  A
C1229      C1230   1.393       .  A
C1229      H1233   1.080       .  S
C1230      O1234   1.373       .  S
O1232      H1236   0.992       .  S
O1234      H1235   0.992       .  S
C1237      C1238   1.397       .  A
C1237      C1242   1.409       .  A
C1238      C1239   1.398       .  A
C1238      H1243   1.084       .  S
C1239      C1240   1.412       .  A
C1239      O1244   1.374       .  S
C1240      C1241   1.402       .  A
C1241      C1242   1.401       .  A
C1241      H1245   1.083       .  S
C1242      O1246   1.372       .  S
O1244      H1248   0.992       .  S
O1246      H1247   0.992       .  S
C1249      C1250   1.398       .  A
C1249      C1254   1.409       .  A
C1250      C1251   1.397       .  A
C1250      H1255   1.080       .  S
C1251      C1252   1.409       .  A
C1251      O1256   1.372       .  S
C1252      C1253   1.406       .  A
C1253      C1254   1.409       .  A
C1253      H1257   1.083       .  S
C1254      O1258   1.371       .  S
O1256      H1260   0.991       .  S
O1258      H1259   0.992       .  S
C1261      C1262   1.411       .  A
C1261      C1266   1.404       .  A
C1262      C1263   1.399       .  A
C1262      H1267   1.084       .  S
C1263      C1264   1.400       .  A
C1263      O1268   1.372       .  S
C1264      C1265   1.405       .  A
C1265      C1266   1.395       .  A
C1265      H1269   1.084       .  S
C1266      O1270   1.371       .  S
O1268      H1272   0.991       .  S
O1270      H1271   0.992       .  S
C1273      C1274   1.396       .  A
C1273      C1278   1.414       .  A
C1274      C1275   1.395       .  A
C1274      H1279   1.083       .  S
C1275      C1276   1.411       .  A
C1275      O1280   1.374       .  S
C1276      C1277   1.400       .  A
C1277      C1278   1.400       .  A
C1277      H1281   1.084       .  S
C1278      O1282   1.372       .  S
O1280      H1284   0.992       .  S
O1282      H1283   0.992       .  S
C1285      C1286   1.404       .  A
C1285      C1290   1.411   1_455  A
C1286      C1287   1.406       .  A
C1286      H1291   1.083       .  S
C1287      C1288   1.417       .  A
C1287      O1292   1.371       .  S
C1288      C1289   1.409   1_455  A
C1289      C1290   1.411       .  A
C1289      H1293   1.082       .  S
C1290      O1294   1.371       .  S
O1292      H1296   0.992       .  S
O1294      H1295   0.992       .  S
C1297      C1298   1.404       .  A
C1297      C1302   1.412   1_455  A
C1298      C1299   1.405       .  A
C1298      H1303   1.084       .  S
C1299      C1300   1.414       .  A
C1299      O1304   1.371       .  S
C1300      C1301   1.408   1_455  A
C1301      C1302   1.411       .  A
C1301      H1305   1.082       .  S
C1302      O1306   1.371       .  S
O1304      H1308   0.992       .  S
O1306      H1307   0.992       .  S
C1309      C1310   1.402       .  A
C1309      C1314   1.412   1_655  A
C1310      C1311   1.404       .  A
C1310      H1315   1.083       .  S
C1311      C1312   1.413       .  A
C1311      O1316   1.371       .  S
C1312      C1313   1.411   1_655  A
C1313      C1314   1.414       .  A
C1313      H1317   1.082       .  S
C1314      O1318   1.371       .  S
O1316      H1320   0.992       .  S
O1318      H1319   0.992       .  S
C1321      C1322   1.399       .  A
C1321      C1326   1.412   1_655  A
C1322      C1323   1.400       .  A
C1322      H1327   1.084       .  S
C1323      C1324   1.413       .  A
C1323      O1328   1.372       .  S
C1324      C1325   1.396   1_655  A
C1325      C1326   1.392       .  A
C1325      H1329   1.084       .  S
C1326      O1330   1.372       .  S
O1328      H1332   0.992       .  S
O1330      H1331   0.992       .  S
C1333      C1334   1.396       .  A
C1333      C1338   1.410   1_655  A
C1334      C1335   1.392       .  A
C1334      H1339   1.084       .  S
C1335      C1336   1.412       .  A
C1335      O1340   1.372       .  S
C1336      C1337   1.402   1_655  A
C1337      C1338   1.402       .  A
C1337      H1341   1.083       .  S
C1338      O1342   1.372       .  S
O1340      H1344   0.991       .  S
O1342      H1343   0.992       .  S
C1345      C1346   1.406       .  A
C1345      C1350   1.412   1_655  A
C1346      C1347   1.411       .  A
C1346      H1351   1.083       .  S
C1347      C1348   1.415       .  A
C1347      O1352   1.372       .  S
C1348      C1349   1.410   1_655  A
C1349      C1350   1.412       .  A
C1349      H1353   1.082       .  S
C1350      O1354   1.371       .  S
O1352      H1356   0.992       .  S
O1354      H1355   0.992       .  S
