geometry optimzed in LAMMPS
_audit_creation_date              2020-11-30 
_audit_creation_method            'lammps2cif' 
_symmetry_space_group_name_H-M    'P1' 
_symmetry_Int_Tables_number       1 
_symmetry_cell_setting            triclinic 
loop_ 
_symmetry_equiv_pos_as_xyz 
  x,y,z 
_cell_length_a                    49.32900441178752 
_cell_length_b                    39.813952510388546 
_cell_length_c                    38.966874774159066 
_cell_angle_alpha                 90.03917822821585 
_cell_angle_beta                  89.99817975116468 
_cell_angle_gamma                 90.04231220945101 
loop_ 
_atom_site_label 
_atom_site_type_symbol 
_atom_site_fract_x 
_atom_site_fract_y 
_atom_site_fract_z 
_atom_site_charge 
N1          N  0.41742254  0.09602379  0.08041915    -0.27400
N2          N  0.40844796  0.06726999  0.09306002    -0.35250
C3          C  0.42319033  0.04193015  0.07979419     0.00950
C4          C  0.44194383  0.05549404  0.05734035     0.06970
C5          C  0.43769951  0.08976119  0.05831763    -0.06130
H6          H  0.42000303  0.01562134  0.08537577     0.07640
H7          H  0.44867866  0.10880851  0.04420211     0.08840
Cu8        Cu  0.37551179  0.06397789  0.12606172     0.44170
Cu9        Cu  0.40239549  0.14271153  0.09402392     0.41990
Cu10       Cu  0.34822456  0.14378804  0.15579477     0.43880
N11         N  0.34230746  0.06832668  0.15849833    -0.34780
N12         N  0.33319133  0.09733342  0.17037757    -0.29040
C13         C  0.31235283  0.09150929  0.19179070    -0.05140
C14         C  0.30790492  0.05727876  0.19303683     0.07080
C15         C  0.32711992  0.04329514  0.17153100     0.00880
H16         H  0.30094820  0.11083437  0.20492871     0.08530
H17         H  0.33012267  0.01690907  0.16615585     0.07610
N18         N  0.36519154  0.18691291  0.13520430    -0.36230
N19         N  0.38506976  0.18648505  0.11246733    -0.28410
C20         C  0.39146510  0.21824149  0.10397070    -0.03650
C21         C  0.37474510  0.23965196  0.12220093     0.04960
C22         C  0.35833223  0.21896829  0.14174188     0.03050
H23         H  0.40708741  0.22515939  0.08579523     0.08160
H24         H  0.34252075  0.22658406  0.15935257     0.06990
O25         O  0.47058945  0.00884757  0.04526487    -0.73050
O26         O  0.02671846  0.96240934  0.48751545    -0.74030
O27         O  0.02849762  0.00876910  0.04321525    -0.62650
O28         O  0.46980156  0.96249372  0.48953123    -0.71060
O29         O  0.46863677  0.00533245  0.45305817    -0.70610
O30         O  0.02724429  0.05150263  0.00662011    -0.61870
O31         O  0.02646666  0.00525208  0.45101914    -0.74370
O32         O  0.47042356  0.05160434  0.00866564    -0.73150
Cu33       Cu  0.49892863  0.98416067  0.01773424     1.04560
Cu34       Cu  0.49816174  0.02986203  0.47850734     1.04330
C35         C  0.46185332  0.03770036  0.03611252     0.93150
C36         C  0.03527369  0.97642511  0.46010930     0.92290
C37         C  0.03693670  0.03757626  0.03343501     0.84430
C38         C  0.46015066  0.97652553  0.46273583     0.90710
N39         N  0.16729700  0.09738795  0.16492882    -0.27400
N40         N  0.15828020  0.06832855  0.15302707    -0.35250
C41         C  0.17300491  0.04332169  0.16688290     0.00950
C42         C  0.19178673  0.05738471  0.18896902     0.06970
C43         C  0.18758731  0.09163417  0.18718055    -0.06130
H44         H  0.16983253  0.01689300  0.16187401     0.07640
H45         H  0.19867417  0.11100014  0.20071829     0.08840
Cu46       Cu  0.12538993  0.06390898  0.12008420     0.44170
Cu47       Cu  0.15245819  0.14375579  0.14983025     0.41990
Cu48       Cu  0.09833040  0.14260399  0.08800603     0.43880
N49         N  0.09215592  0.06715316  0.08757088    -0.34780
N50         N  0.08310667  0.09585473  0.07492615    -0.29040
C51         C  0.06228459  0.08955348  0.05365957    -0.05140
C52         C  0.05776581  0.05532519  0.05325126     0.07080
C53         C  0.07693486  0.04181862  0.07514250     0.00880
H54         H  0.05099973  0.10857330  0.03992763     0.08530
H55         H  0.07992456  0.01556108  0.08111534     0.07610
N56         N  0.11534242  0.18641555  0.10687886    -0.36230
N57         N  0.13520512  0.18685224  0.12963614    -0.28410
C58         C  0.14160351  0.21892063  0.13686204    -0.03650
C59         C  0.12489521  0.23960744  0.11777268     0.04960
C60         C  0.10849506  0.21818441  0.09905758     0.03050
H61         H  0.15720727  0.22654563  0.15477458     0.08160
H62         H  0.09268855  0.22510395  0.08115223     0.06990
N63         N  0.32991067  0.92014716  0.32984829    -0.27400
N64         N  0.33889238  0.94890345  0.34251958    -0.35250
C65         C  0.32407220  0.97423141  0.32941107     0.00950
C66         C  0.30525572  0.96066288  0.30703264     0.06970
C67         C  0.30954895  0.92640316  0.30787978    -0.06130
H68         H  0.32724430  0.00053904  0.33505226     0.07640
H69         H  0.29854139  0.90735495  0.29377311     0.08840
Cu70       Cu  0.37189045  0.95226344  0.37541383     0.44170
Cu71       Cu  0.34498862  0.87345141  0.34328902     0.41990
Cu72       Cu  0.39915410  0.87252941  0.40506293     0.43880
N73         N  0.40502813  0.94797886  0.40795651    -0.34780
N74         N  0.41413518  0.91897476  0.41980688    -0.29040
C75         C  0.43488803  0.92480508  0.44135646    -0.05140
C76         C  0.43928764  0.95904218  0.44273340     0.07080
C77         C  0.42013764  0.97302149  0.42114855     0.00880
H78         H  0.44626426  0.90548198  0.45450686     0.08530
H79         H  0.41712154  0.99940895  0.41583323     0.07610
N80         N  0.38218743  0.82935945  0.38452654    -0.36230
N81         N  0.36231153  0.82971610  0.36178715    -0.28410
C82         C  0.35588361  0.79792775  0.35340341    -0.03650
C83         C  0.37257989  0.77657646  0.37171540     0.04960
C84         C  0.38901248  0.79732628  0.39117904     0.03050
H85         H  0.34024032  0.79094648  0.33527344     0.08160
H86         H  0.40479946  0.78976963  0.40883923     0.06990
O87         O  0.27652326  0.00727719  0.29522990    -0.73050
O88         O  0.22037470  0.05385875  0.23768080    -0.74030
O89         O  0.21860893  0.00735761  0.29319787    -0.62650
O90         O  0.27729854  0.05377419  0.23972198    -0.71060
O91         O  0.27847483  0.01102061  0.20308463    -0.70610
O92         O  0.21986019  0.96469214  0.25645994    -0.61870
O93         O  0.22063775  0.01108421  0.20104122    -0.74370
O94         O  0.27668676  0.96460574  0.25846592    -0.73150
Cu95       Cu  0.24817087  0.03203243  0.26781703     1.04560
Cu96       Cu  0.24894274  0.98641586  0.22842203     1.04330
C97         C  0.28527748  0.97845956  0.28594493     0.93150
C98         C  0.21182383  0.03989034  0.21022744     0.92290
C99         C  0.21017093  0.97856780  0.28332548     0.84430
C100        C  0.28697378  0.03979298  0.21289515     0.90710
N101        N  0.16404061  0.92026714  0.32480357    -0.27400
N102        N  0.15496801  0.94898217  0.33743540    -0.35250
C103        C  0.17016573  0.97431258  0.32499397     0.00950
C104        C  0.18934318  0.96079851  0.30310335     0.06970
C105        C  0.18485553  0.92656256  0.30352485    -0.06130
H106        H  0.16715836  0.00057584  0.33096589     0.07640
H107        H  0.19616578  0.90753467  0.28980909     0.08840
Cu108      Cu  0.12173771  0.95230623  0.36995480     0.44170
Cu109      Cu  0.14887465  0.87351118  0.33795378     0.41990
Cu110      Cu  0.09471431  0.87255877  0.39974442     0.43880
N111        N  0.08882773  0.94797425  0.40287509    -0.34780
N112        N  0.07982025  0.91892816  0.41477700    -0.29040
C113        C  0.05952030  0.92469539  0.43701543    -0.05140
C114        C  0.05530298  0.95894224  0.43880297     0.07080
C115        C  0.07408650  0.97299250  0.41672430     0.00880
H116        H  0.04845104  0.90533960  0.45056368     0.08530
H117        H  0.07725549  0.99941693  0.41172832     0.07610
N118        N  0.11201512  0.82940306  0.37971588    -0.36230
N119        N  0.13188960  0.82975436  0.35697237    -0.28410
C120        C  0.13877156  0.79795280  0.34929056    -0.03650
C121        C  0.12238230  0.77660348  0.36808554     0.04960
C122        C  0.10564414  0.79736533  0.38707259     0.03050
H123        H  0.15459639  0.79096077  0.33143003     0.08160
H124        H  0.09004068  0.78981331  0.40500855     0.06990
N125        N  0.41583248  0.59615447  0.41212217    -0.27400
N126        N  0.40689350  0.56741243  0.39936822    -0.35250
C127        C  0.42188136  0.54210789  0.41220130     0.00950
C128        C  0.44076815  0.55566819  0.43448355     0.06970
C129        C  0.43634327  0.58990585  0.43387063    -0.06130
H130        H  0.41883683  0.51581982  0.40635282     0.07640
H131        H  0.44740957  0.60895156  0.44790665     0.08840
Cu132      Cu  0.37385953  0.56399523  0.36654996     0.44170
Cu133      Cu  0.40061119  0.64283132  0.39891138     0.41990
Cu134      Cu  0.34645294  0.64368307  0.33711832     0.43880
N135        N  0.34076926  0.56821516  0.33392979    -0.34780
N136        N  0.33162232  0.59722438  0.32214413    -0.29040
C137        C  0.31102340  0.59137745  0.30036510    -0.05140
C138        C  0.30675858  0.55712208  0.29877204     0.07080
C139        C  0.32583151  0.54314649  0.32047022     0.00880
H140        H  0.29970301  0.61069388  0.28712716     0.08530
H141        H  0.32897186  0.51674552  0.32559407     0.07610
N142        N  0.36331558  0.68687478  0.35776551    -0.36230
N143        N  0.38318856  0.68653493  0.38050946    -0.28410
C144        C  0.38957536  0.71832455  0.38893145    -0.03650
C145        C  0.37285660  0.73966379  0.37064030     0.04960
C146        C  0.35645105  0.71890382  0.35114913     0.03050
H147        H  0.40522193  0.72531508  0.40705352     0.08160
H148        H  0.34067191  0.72645183  0.33347414     0.06990
N149        N  0.41547405  0.41888142  0.07197977    -0.27400
N150        N  0.40630518  0.44790245  0.08375392    -0.35250
C151        C  0.42122872  0.47296328  0.07029490     0.00950
C152        C  0.44031514  0.45897838  0.04860588     0.06970
C153        C  0.43607443  0.42471905  0.05020177    -0.06130
H154        H  0.41807494  0.49936846  0.07542298     0.07640
H155        H  0.44742199  0.40539501  0.03698331     0.08840
Cu156      Cu  0.37321623  0.45220250  0.11637218     0.44170
Cu157      Cu  0.40069628  0.37242334  0.08701311     0.41990
Cu158      Cu  0.34652257  0.37346668  0.14878551     0.43880
N159        N  0.34017479  0.44886669  0.14918264    -0.34780
N160        N  0.33125019  0.42013818  0.16194008    -0.29040
C161        C  0.31073865  0.42639725  0.18368909    -0.05140
C162        C  0.30629718  0.46063055  0.18430726     0.07080
C163        C  0.32517619  0.47417981  0.16202086     0.00880
H164        H  0.29969437  0.40736167  0.19773994     0.08530
H165        H  0.32821414  0.50046312  0.15618399     0.07610
N166        N  0.36399838  0.32971520  0.13055509    -0.36230
N167        N  0.38387742  0.32929353  0.10781908    -0.28410
C168        C  0.39079007  0.29724074  0.10135618    -0.03650
C169        C  0.37441029  0.27655643  0.12094277     0.04960
C170        C  0.35765581  0.29796233  0.13912549     0.03050
H171        H  0.40658891  0.28962507  0.08372828     0.08160
H172        H  0.34201940  0.29104319  0.15728200     0.06990
N173        N  0.16578266  0.59722628  0.32247327    -0.27400
N174        N  0.15680951  0.56823529  0.33455775    -0.35330
C175        C  0.17177758  0.54318758  0.32116713     0.00950
C176        C  0.19068410  0.55715473  0.29920625     0.06970
C177        C  0.18629809  0.59138499  0.30057938    -0.06130
H178        H  0.16873302  0.51679654  0.32646513     0.07640
H179        H  0.19743227  0.61068942  0.28703931     0.08840
Cu180      Cu  0.12379782  0.56397783  0.36731149     0.44170
Cu181      Cu  0.15067336  0.64365651  0.33693412     0.41990
Cu182      Cu  0.09651402  0.64284333  0.39872899     0.43880
N183        N  0.09067812  0.56736439  0.39999189    -0.34780
N184        N  0.08156697  0.59613239  0.41244785    -0.29040
C185        C  0.06096839  0.58988734  0.43407969    -0.05140
C186        C  0.05665939  0.55562238  0.43491064     0.07080
C187        C  0.07571411  0.54204184  0.41289246     0.00880
H188        H  0.04971690  0.60895556  0.44781410     0.08530
H189        H  0.07885141  0.51573953  0.40721996     0.07610
N190        N  0.11335651  0.68654873  0.37938008    -0.36230
N191        N  0.13323006  0.68686403  0.35663475    -0.28410
C192        C  0.13954911  0.71889265  0.34915083    -0.03650
C193        C  0.12277716  0.73968066  0.36806281     0.04960
C194        C  0.10642335  0.71835832  0.38693603     0.03050
H195        H  0.15517182  0.72642051  0.33122993     0.08160
H196        H  0.09061922  0.72537443  0.40481493     0.06990
O197        O  0.02736598  0.50526946  0.03786401    -0.73050
O198        O  0.47017321  0.55173834  0.48225551    -0.74030
O199        O  0.46949640  0.50529330  0.03766172    -0.62650
O200        O  0.02702227  0.55171730  0.48246180    -0.71060
O201        O  0.02760257  0.50905587  0.44569067    -0.70610
O202        O  0.47000888  0.46255224  0.50098478    -0.61870
O203        O  0.46968843  0.50907815  0.44547956    -0.74370
O204        O  0.02694213  0.46254155  0.50116725    -0.73150
Cu205      Cu  0.49851149  0.52994143  0.01140778     1.04560
Cu206      Cu  0.49856031  0.48434483  0.47197392     1.04330
C207        C  0.03602254  0.47648864  0.02835198     0.93150
C208        C  0.46109586  0.53788522  0.45502721     0.92290
C209        C  0.46084329  0.47650645  0.02811348     0.84430
C210        C  0.03620633  0.53785317  0.45530536     0.90710
O211        O  0.21972359  0.51082390  0.28789414    -0.73050
O212        O  0.27690129  0.46450005  0.23208723    -0.74030
O213        O  0.27758693  0.51080362  0.28768015    -0.62650
O214        O  0.22005905  0.46451952  0.23226989    -0.71060
O215        O  0.21948696  0.50726530  0.19566180    -0.70610
O216        O  0.27707272  0.55361373  0.25114769    -0.61870
O217        O  0.27739394  0.50722938  0.19545518    -0.74370
O218        O  0.22014544  0.55363632  0.25136108    -0.73150
Cu219      Cu  0.24856782  0.48622095  0.26132283     1.04560
Cu220      Cu  0.24852231  0.53190246  0.22205705     1.04330
C221        C  0.21108342  0.53963894  0.27851209     0.93150
C222        C  0.28598033  0.47840099  0.20490481     0.92290
C223        C  0.28623851  0.53960993  0.27822866     0.84430
C224        C  0.21089586  0.47843496  0.20514736     0.90710
N225        N  0.08150768  0.41891091  0.07193645    -0.27400
N226        N  0.09048576  0.44790526  0.08405199    -0.35250
C227        C  0.07544675  0.47294145  0.07080700     0.00950
C228        C  0.05648470  0.45896952  0.04891269     0.06970
C229        C  0.06091638  0.42474547  0.05016356    -0.06130
H230        H  0.07847622  0.49933161  0.07616340     0.07640
H231        H  0.04975789  0.40543897  0.03663040     0.08840
Cu232      Cu  0.12355283  0.45223160  0.11671169     0.44170
Cu233      Cu  0.09666450  0.37247219  0.08624569     0.41990
Cu234      Cu  0.15081688  0.37344696  0.14804483     0.43880
N235        N  0.15661406  0.44891403  0.14948826    -0.34780
N236        N  0.16571749  0.42014897  0.16191419    -0.29040
C237        C  0.18623891  0.42639980  0.18366716    -0.05140
C238        C  0.19050471  0.46067105  0.18461995     0.07080
C239        C  0.17150806  0.47424761  0.16253423     0.00880
H240        H  0.19746384  0.40733285  0.19740856     0.08530
H241        H  0.16835831  0.50055110  0.15691913     0.07610
N242        N  0.13398568  0.32969890  0.12874110    -0.36230
N243        N  0.11411561  0.32930902  0.10599318    -0.28410
C244        C  0.10777942  0.29725207  0.09860677    -0.03650
C245        C  0.12453682  0.27653004  0.11759015     0.04960
C246        C  0.14089905  0.29791795  0.13639676     0.03050
H247        H  0.09214228  0.28965960  0.08072481     0.08160
H248        H  0.15668343  0.29096600  0.15431833     0.06990
N249        N  0.41742256  0.09602379  0.58041919    -0.27400
N250        N  0.40844796  0.06726999  0.59306005    -0.35250
C251        C  0.42319033  0.04193015  0.57979420     0.00950
C252        C  0.44194383  0.05549404  0.55734037     0.06970
C253        C  0.43769952  0.08976119  0.55831766    -0.06130
H254        H  0.42000301  0.01562134  0.58537577     0.07640
H255        H  0.44867868  0.10880851  0.54420216     0.08840
Cu256      Cu  0.37551179  0.06397789  0.62606173     0.44170
Cu257      Cu  0.40239551  0.14271153  0.59402397     0.41990
Cu258      Cu  0.34822453  0.14378803  0.65579475     0.43880
N259        N  0.34230745  0.06832668  0.65849833    -0.34780
N260        N  0.33319131  0.09733342  0.67037755    -0.29040
C261        C  0.31235280  0.09150929  0.69179068    -0.05140
C262        C  0.30790491  0.05727876  0.69303682     0.07080
C263        C  0.32711991  0.04329514  0.67153100     0.00880
H264        H  0.30094817  0.11083437  0.70492867     0.08530
H265        H  0.33012268  0.01690907  0.66615586     0.07610
N266        N  0.36519153  0.18691290  0.63520430    -0.36230
N267        N  0.38506977  0.18648505  0.61246737    -0.28410
C268        C  0.39146513  0.21824149  0.60397074    -0.03650
C269        C  0.37474510  0.23965196  0.62220094     0.04960
C270        C  0.35833222  0.21896829  0.64174187     0.03050
H271        H  0.40708744  0.22515939  0.58579529     0.08160
H272        H  0.34252072  0.22658406  0.65935254     0.06990
O273        O  0.47058944  0.00884756  0.54526489    -0.73050
O274        O  0.02671845  0.96240935  0.98751542    -0.74030
O275        O  0.02849762  0.00876910  0.54321528    -0.62650
O276        O  0.46980156  0.96249372  0.98953121    -0.71060
O277        O  0.46863677  0.00533246  0.95305815    -0.70610
O278        O  0.02724429  0.05150263  0.50662014    -0.61870
O279        O  0.02646665  0.00525208  0.95101911    -0.74370
O280        O  0.47042356  0.05160434  0.50866566    -0.73150
Cu281      Cu  0.49892863  0.98416067  0.51773426     1.04560
Cu282      Cu  0.49816175  0.02986204  0.97850733     1.04330
C283        C  0.46185332  0.03770036  0.53611253     0.93150
C284        C  0.03527368  0.97642511  0.96010926     0.92290
C285        C  0.03693670  0.03757625  0.53343504     0.84430
C286        C  0.46015066  0.97652553  0.96273581     0.90710
N287        N  0.16729700  0.09738795  0.66492881    -0.27400
N288        N  0.15828019  0.06832854  0.65302708    -0.35250
C289        C  0.17300490  0.04332169  0.66688291     0.00950
C290        C  0.19178673  0.05738471  0.68896902     0.06970
C291        C  0.18758732  0.09163416  0.68718054    -0.06130
H292        H  0.16983252  0.01689300  0.66187403     0.07640
H293        H  0.19867419  0.11100014  0.70071828     0.08840
Cu294      Cu  0.12538992  0.06390898  0.62008422     0.44170
Cu295      Cu  0.15245821  0.14375578  0.64983022     0.41990
Cu296      Cu  0.09833043  0.14260398  0.58800599     0.43880
N297        N  0.09215592  0.06715316  0.58757090    -0.34780
N298        N  0.08310668  0.09585472  0.57492615    -0.29040
C299        C  0.06228460  0.08955347  0.55365958    -0.05140
C300        C  0.05776580  0.05532519  0.55325129     0.07080
C301        C  0.07693484  0.04181862  0.57514254     0.00880
H302        H  0.05099974  0.10857329  0.53992762     0.08530
H303        H  0.07992454  0.01556108  0.58111540     0.07610
N304        N  0.11534245  0.18641554  0.60687881    -0.36230
N305        N  0.13520515  0.18685223  0.62963610    -0.28410
C306        C  0.14160353  0.21892062  0.63686202    -0.03650
C307        C  0.12489523  0.23960743  0.61777266     0.04960
C308        C  0.10849509  0.21818440  0.59905754     0.03050
H309        H  0.15720728  0.22654562  0.65477457     0.08160
H310        H  0.09268858  0.22510395  0.58115219     0.06990
N311        N  0.32991068  0.92014715  0.82984826    -0.27400
N312        N  0.33889238  0.94890344  0.84251957    -0.35250
C313        C  0.32407219  0.97423141  0.82941107     0.00950
C314        C  0.30525571  0.96066288  0.80703263     0.06970
C315        C  0.30954896  0.92640315  0.80787975    -0.06130
H316        H  0.32724428  0.00053903  0.83505226     0.07640
H317        H  0.29854141  0.90735495  0.79377308     0.08840
Cu318      Cu  0.37189045  0.95226343  0.87541382     0.44170
Cu319      Cu  0.34498864  0.87345141  0.84328898     0.41990
Cu320      Cu  0.39915411  0.87252941  0.90506290     0.43880
N321        N  0.40502814  0.94797886  0.90795650    -0.34780
N322        N  0.41413519  0.91897476  0.91980686    -0.29040
C323        C  0.43488804  0.92480508  0.94135644    -0.05140
C324        C  0.43928764  0.95904218  0.94273338     0.07080
C325        C  0.42013764  0.97302149  0.92114854     0.00880
H326        H  0.44626427  0.90548198  0.95450684     0.08530
H327        H  0.41712153  0.99940895  0.91583322     0.07610
N328        N  0.38218744  0.82935945  0.88452651    -0.36230
N329        N  0.36231154  0.82971610  0.86178711    -0.28410
C330        C  0.35588362  0.79792774  0.85340338    -0.03650
C331        C  0.37257990  0.77657646  0.87171537     0.04960
C332        C  0.38901249  0.79732627  0.89117902     0.03050
H333        H  0.34024034  0.79094647  0.83527341     0.08160
H334        H  0.40479947  0.78976963  0.90883921     0.06990
O335        O  0.27652326  0.00727718  0.79522990    -0.73050
O336        O  0.22037470  0.05385875  0.73768081    -0.74030
O337        O  0.21860892  0.00735760  0.79319787    -0.62650
O338        O  0.27729854  0.05377419  0.73972198    -0.71060
O339        O  0.27847483  0.01102061  0.70308463    -0.70610
O340        O  0.21986019  0.96469213  0.75645994    -0.61870
O341        O  0.22063775  0.01108420  0.70104122    -0.74370
O342        O  0.27668676  0.96460573  0.75846591    -0.73150
Cu343      Cu  0.24817087  0.03203242  0.76781703     1.04560
Cu344      Cu  0.24894273  0.98641585  0.72842203     1.04330
C345        C  0.28527747  0.97845955  0.78594492     0.93150
C346        C  0.21182383  0.03989033  0.71022744     0.92290
C347        C  0.21017092  0.97856779  0.78332547     0.84430
C348        C  0.28697377  0.03979297  0.71289515     0.90710
N349        N  0.16404060  0.92026713  0.82480355    -0.27400
N350        N  0.15496799  0.94898216  0.83743537    -0.35250
C351        C  0.17016572  0.97431257  0.82499394     0.00950
C352        C  0.18934318  0.96079850  0.80310334     0.06970
C353        C  0.18485553  0.92656255  0.80352485    -0.06130
H354        H  0.16715833  0.00057584  0.83096586     0.07640
H355        H  0.19616579  0.90753466  0.78980910     0.08840
Cu356      Cu  0.12173768  0.95230623  0.86995474     0.44170
Cu357      Cu  0.14887464  0.87351117  0.83795376     0.41990
Cu358      Cu  0.09471427  0.87255877  0.89974435     0.43880
N359        N  0.08882769  0.94797425  0.90287503    -0.34780
N360        N  0.07982021  0.91892816  0.91477694    -0.29040
C361        C  0.05952026  0.92469539  0.93701538    -0.05140
C362        C  0.05530295  0.95894224  0.93880293     0.07080
C363        C  0.07408647  0.97299250  0.91672424     0.00880
H364        H  0.04845101  0.90533960  0.95056363     0.08530
H365        H  0.07725546  0.99941692  0.91172827     0.07610
N366        N  0.11201509  0.82940305  0.87971584    -0.36230
N367        N  0.13188958  0.82975435  0.85697234    -0.28410
C368        C  0.13877155  0.79795280  0.84929055    -0.03650
C369        C  0.12238229  0.77660348  0.86808552     0.04960
C370        C  0.10564412  0.79736533  0.88707255     0.03050
H371        H  0.15459639  0.79096076  0.83143003     0.08160
H372        H  0.09004065  0.78981330  0.90500850     0.06990
N373        N  0.41583248  0.59615446  0.91212215    -0.27400
N374        N  0.40689350  0.56741242  0.89936819    -0.35250
C375        C  0.42188135  0.54210788  0.91220127     0.00950
C376        C  0.44076814  0.55566818  0.93448354     0.06970
C377        C  0.43634325  0.58990584  0.93387062    -0.06130
H378        H  0.41883684  0.51581981  0.90635278     0.07640
H379        H  0.44740955  0.60895155  0.94790664     0.08840
Cu380      Cu  0.37385954  0.56399522  0.86654992     0.44170
Cu381      Cu  0.40061118  0.64283131  0.89891136     0.41990
Cu382      Cu  0.34645293  0.64368307  0.83711831     0.43880
N383        N  0.34076927  0.56821515  0.83392974    -0.34780
N384        N  0.33162232  0.59722438  0.82214409    -0.29040
C385        C  0.31102339  0.59137745  0.80036507    -0.05140
C386        C  0.30675859  0.55712208  0.79877200     0.07080
C387        C  0.32583152  0.54314649  0.82047016     0.00880
H388        H  0.29970300  0.61069388  0.78712714     0.08530
H389        H  0.32897188  0.51674552  0.82559401     0.07610
N390        N  0.36331557  0.68687477  0.85776550    -0.36230
N391        N  0.38318855  0.68653493  0.88050945    -0.28410
C392        C  0.38957535  0.71832454  0.88893143    -0.03650
C393        C  0.37285660  0.73966378  0.87064028     0.04960
C394        C  0.35645104  0.71890381  0.85114912     0.03050
H395        H  0.40522193  0.72531507  0.90705350     0.08160
H396        H  0.34067190  0.72645183  0.83347413     0.06990
N397        N  0.41547404  0.41888141  0.57197975    -0.27400
N398        N  0.40630518  0.44790244  0.58375390    -0.35250
C399        C  0.42122871  0.47296327  0.57029489     0.00950
C400        C  0.44031513  0.45897837  0.54860587     0.06970
C401        C  0.43607443  0.42471904  0.55020176    -0.06130
H402        H  0.41807493  0.49936845  0.57542297     0.07640
H403        H  0.44742200  0.40539500  0.53698330     0.08840
Cu404      Cu  0.37321622  0.45220250  0.61637215     0.44170
Cu405      Cu  0.40069628  0.37242333  0.58701309     0.41990
Cu406      Cu  0.34652255  0.37346668  0.64878546     0.43880
N407        N  0.34017477  0.44886669  0.64918260    -0.34780
N408        N  0.33125016  0.42013817  0.66194004    -0.29040
C409        C  0.31073862  0.42639725  0.68368904    -0.05140
C410        C  0.30629716  0.46063055  0.68430722     0.07080
C411        C  0.32517617  0.47417981  0.66202082     0.00880
H412        H  0.29969434  0.40736167  0.69773989     0.08530
H413        H  0.32821413  0.50046312  0.65618396     0.07610
N414        N  0.36399837  0.32971520  0.63055507    -0.36230
N415        N  0.38387742  0.32929352  0.60781907    -0.28410
C416        C  0.39079008  0.29724073  0.60135619    -0.03650
C417        C  0.37441029  0.27655643  0.62094278     0.04960
C418        C  0.35765580  0.29796233  0.63912547     0.03050
H419        H  0.40658893  0.28962506  0.58372830     0.08160
H420        H  0.34201939  0.29104319  0.65728198     0.06990
N421        N  0.16578267  0.59722627  0.82247329    -0.27400
N422        N  0.15680951  0.56823527  0.83455774    -0.35330
C423        C  0.17177756  0.54318757  0.82116711     0.00950
C424        C  0.19068410  0.55715472  0.79920625     0.06970
C425        C  0.18629811  0.59138499  0.80057940    -0.06130
H426        H  0.16873300  0.51679653  0.82646510     0.07640
H427        H  0.19743229  0.61068941  0.78703934     0.08840
Cu428      Cu  0.12379780  0.56397782  0.86731145     0.44170
Cu429      Cu  0.15067337  0.64365650  0.83693414     0.41990
Cu430      Cu  0.09651399  0.64284332  0.89872896     0.43880
N431        N  0.09067810  0.56736438  0.89999185    -0.34780
N432        N  0.08156694  0.59613238  0.91244781    -0.29040
C433        C  0.06096837  0.58988733  0.93407965    -0.05140
C434        C  0.05665937  0.55562237  0.93491061     0.07080
C435        C  0.07571409  0.54204183  0.91289243     0.00880
H436        H  0.04971688  0.60895555  0.94781407     0.08530
H437        H  0.07885138  0.51573952  0.90721994     0.07610
N438        N  0.11335650  0.68654873  0.87938007    -0.36230
N439        N  0.13323006  0.68686402  0.85663477    -0.28410
C440        C  0.13954912  0.71889264  0.84915084    -0.03650
C441        C  0.12277715  0.73968066  0.86806280     0.04960
C442        C  0.10642333  0.71835832  0.88693601     0.03050
H443        H  0.15517184  0.72642050  0.83122996     0.08160
H444        H  0.09061918  0.72537442  0.90481488     0.06990
O445        O  0.02736598  0.50526945  0.53786402    -0.73050
O446        O  0.47017321  0.55173833  0.98225549    -0.74030
O447        O  0.46949640  0.50529330  0.53766173    -0.62650
O448        O  0.02702225  0.55171730  0.98246178    -0.71060
O449        O  0.02760256  0.50905586  0.94569067    -0.70610
O450        O  0.47000887  0.46255224  0.00098478    -0.61870
O451        O  0.46968842  0.50907814  0.94547955    -0.74370
O452        O  0.02694212  0.46254156  0.00116726    -0.73150
Cu453      Cu  0.49851150  0.52994143  0.51140780     1.04560
Cu454      Cu  0.49856030  0.48434482  0.97197391     1.04330
C455        C  0.03602255  0.47648863  0.52835198     0.93150
C456        C  0.46109585  0.53788521  0.95502719     0.92290
C457        C  0.46084329  0.47650644  0.52811348     0.84430
C458        C  0.03620631  0.53785317  0.95530535     0.90710
O459        O  0.21972360  0.51082389  0.78789413    -0.73050
O460        O  0.27690129  0.46450005  0.73208720    -0.74030
O461        O  0.27758694  0.51080362  0.78768012    -0.62650
O462        O  0.22005904  0.46451952  0.73226988    -0.71060
O463        O  0.21948694  0.50726529  0.69566179    -0.70610
O464        O  0.27707272  0.55361373  0.75114765    -0.61870
O465        O  0.27739393  0.50722938  0.69545515    -0.74370
O466        O  0.22014543  0.55363632  0.75136107    -0.73150
Cu467      Cu  0.24856782  0.48622095  0.76132281     1.04560
Cu468      Cu  0.24852230  0.53190246  0.72205703     1.04330
C469        C  0.21108342  0.53963894  0.77851208     0.93150
C470        C  0.28598032  0.47840098  0.70490478     0.92290
C471        C  0.28623851  0.53960993  0.77822862     0.84430
C472        C  0.21089585  0.47843496  0.70514736     0.90710
N473        N  0.08150768  0.41891090  0.57193646    -0.27400
N474        N  0.09048575  0.44790525  0.58405200    -0.35250
C475        C  0.07544675  0.47294143  0.57080701     0.00950
C476        C  0.05648470  0.45896951  0.54891270     0.06970
C477        C  0.06091638  0.42474546  0.55016356    -0.06130
H478        H  0.07847621  0.49933159  0.57616342     0.07640
H479        H  0.04975789  0.40543897  0.53663039     0.08840
Cu480      Cu  0.12355282  0.45223158  0.61671170     0.44170
Cu481      Cu  0.09666450  0.37247217  0.58624570     0.41990
Cu482      Cu  0.15081685  0.37344694  0.64804489     0.43880
N483        N  0.15661404  0.44891402  0.64948829    -0.34780
N484        N  0.16571746  0.42014896  0.66191423    -0.29040
C485        C  0.18623888  0.42639979  0.68366719    -0.05140
C486        C  0.19050470  0.46067104  0.68461997     0.07080
C487        C  0.17150805  0.47424760  0.66253424     0.00880
H488        H  0.19746381  0.40733284  0.69740860     0.08530
H489        H  0.16835830  0.50055109  0.65691913     0.07610
N490        N  0.13398566  0.32969889  0.62874113    -0.36230
N491        N  0.11411561  0.32930901  0.60599320    -0.28410
C492        C  0.10777943  0.29725206  0.59860676    -0.03650
C493        C  0.12453683  0.27653003  0.61759014     0.04960
C494        C  0.14089904  0.29791794  0.63639678     0.03050
H495        H  0.09214230  0.28965959  0.58072478     0.08160
H496        H  0.15668341  0.29096598  0.65431836     0.06990
N497        N  0.91742254  0.09602380  0.08041915    -0.27400
N498        N  0.90844795  0.06727000  0.09306000    -0.35250
C499        C  0.92319032  0.04193016  0.07979417     0.00950
C500        C  0.94194382  0.05549405  0.05734034     0.06970
C501        C  0.93769951  0.08976120  0.05831762    -0.06130
H502        H  0.92000301  0.01562135  0.08537574     0.07640
H503        H  0.94867866  0.10880852  0.04420212     0.08840
Cu504      Cu  0.87551178  0.06397789  0.12606170     0.44170
Cu505      Cu  0.90239549  0.14271154  0.09402392     0.41990
Cu506      Cu  0.84822456  0.14378803  0.15579477     0.43880
N507        N  0.84230746  0.06832668  0.15849832    -0.34780
N508        N  0.83319133  0.09733342  0.17037758    -0.29040
C509        C  0.81235284  0.09150928  0.19179071    -0.05140
C510        C  0.80790493  0.05727876  0.19303683     0.07080
C511        C  0.82711992  0.04329514  0.17153099     0.00880
H512        H  0.80094821  0.11083437  0.20492872     0.08530
H513        H  0.83012267  0.01690907  0.16615583     0.07610
N514        N  0.86519154  0.18691291  0.13520431    -0.36230
N515        N  0.88506976  0.18648506  0.11246734    -0.28410
C516        C  0.89146510  0.21824149  0.10397070    -0.03650
C517        C  0.87474509  0.23965196  0.12220093     0.04960
C518        C  0.85833223  0.21896829  0.14174188     0.03050
H519        H  0.90708740  0.22515940  0.08579522     0.08160
H520        H  0.84252074  0.22658406  0.15935257     0.06990
O521        O  0.97058944  0.00884758  0.04526486    -0.73050
O522        O  0.52671845  0.96240934  0.48751544    -0.74030
O523        O  0.52849763  0.00876909  0.04321525    -0.62650
O524        O  0.96980157  0.96249372  0.48953122    -0.71060
O525        O  0.96863678  0.00533245  0.45305816    -0.70610
O526        O  0.52724429  0.05150263  0.00662011    -0.61870
O527        O  0.52646665  0.00525207  0.45101913    -0.74370
O528        O  0.97042356  0.05160435  0.00866563    -0.73150
Cu529      Cu  0.99892863  0.98416068  0.01773424     1.04560
Cu530      Cu  0.99816175  0.02986203  0.47850735     1.04330
C531        C  0.96185332  0.03770037  0.03611251     0.93150
C532        C  0.53527368  0.97642510  0.46010929     0.92290
C533        C  0.53693671  0.03757625  0.03343501     0.84430
C534        C  0.96015068  0.97652553  0.46273582     0.90710
N535        N  0.66729701  0.09738795  0.16492880    -0.27400
N536        N  0.65828021  0.06832854  0.15302706    -0.35250
C537        C  0.67300493  0.04332169  0.16688289     0.00950
C538        C  0.69178674  0.05738471  0.18896901     0.06970
C539        C  0.68758733  0.09163416  0.18718054    -0.06130
H540        H  0.66983255  0.01689300  0.16187400     0.07640
H541        H  0.69867418  0.11100014  0.20071828     0.08840
Cu542      Cu  0.62538995  0.06390897  0.12008419     0.44170
Cu543      Cu  0.65245820  0.14375578  0.14983023     0.41990
Cu544      Cu  0.59833040  0.14260398  0.08800603     0.43880
N545        N  0.59215594  0.06715315  0.08757087    -0.34780
N546        N  0.58310667  0.09585472  0.07492616    -0.29040
C547        C  0.56228460  0.08955347  0.05365958    -0.05140
C548        C  0.55776582  0.05532518  0.05325126     0.07080
C549        C  0.57693487  0.04181861  0.07514249     0.00880
H550        H  0.55099972  0.10857329  0.03992764     0.08530
H551        H  0.57992458  0.01556107  0.08111533     0.07610
N552        N  0.61534242  0.18641554  0.10687886    -0.36230
N553        N  0.63520513  0.18685223  0.12963613    -0.28410
C554        C  0.64160352  0.21892062  0.13686203    -0.03650
C555        C  0.62489521  0.23960743  0.11777268     0.04960
C556        C  0.60849506  0.21818440  0.09905758     0.03050
H557        H  0.65720729  0.22654562  0.15477457     0.08160
H558        H  0.59268855  0.22510394  0.08115224     0.06990
N559        N  0.82991067  0.92014716  0.32984831    -0.27400
N560        N  0.83889239  0.94890345  0.34251959    -0.35250
C561        C  0.82407221  0.97423142  0.32941108     0.00950
C562        C  0.80525572  0.96066289  0.30703266     0.06970
C563        C  0.80954894  0.92640316  0.30787981    -0.06130
H564        H  0.82724431  0.00053905  0.33505225     0.07640
H565        H  0.79854138  0.90735495  0.29377314     0.08840
Cu566      Cu  0.87189047  0.95226344  0.37541382     0.44170
Cu567      Cu  0.84498862  0.87345141  0.34328904     0.41990
Cu568      Cu  0.89915413  0.87252941  0.40506290     0.43880
N569        N  0.90502816  0.94797885  0.40795649    -0.34780
N570        N  0.91413521  0.91897475  0.41980685    -0.29040
C571        C  0.93488806  0.92480507  0.44135643    -0.05140
C572        C  0.93928767  0.95904218  0.44273337     0.07080
C573        C  0.92013766  0.97302148  0.42114853     0.00880
H574        H  0.94626429  0.90548197  0.45450684     0.08530
H575        H  0.91712156  0.99940895  0.41583322     0.07610
N576        N  0.88218744  0.82935945  0.38452653    -0.36230
N577        N  0.86231153  0.82971610  0.36178716    -0.28410
C578        C  0.85588360  0.79792775  0.35340342    -0.03650
C579        C  0.87257990  0.77657646  0.37171539     0.04960
C580        C  0.88901250  0.79732627  0.39117903     0.03050
H581        H  0.84024031  0.79094648  0.33527347     0.08160
H582        H  0.90479949  0.78976963  0.40883920     0.06990
O583        O  0.77652326  0.00727719  0.29522991    -0.73050
O584        O  0.72037471  0.05385875  0.23768080    -0.74030
O585        O  0.71860893  0.00735762  0.29319788    -0.62650
O586        O  0.77729855  0.05377419  0.23972198    -0.71060
O587        O  0.77847484  0.01102061  0.20308464    -0.70610
O588        O  0.71986020  0.96469214  0.25645995    -0.61870
O589        O  0.72063776  0.01108420  0.20104122    -0.74370
O590        O  0.77668676  0.96460574  0.25846594    -0.73150
Cu591      Cu  0.74817088  0.03203243  0.26781704     1.04560
Cu592      Cu  0.74894274  0.98641586  0.22842204     1.04330
C593        C  0.78527748  0.97845956  0.28594495     0.93150
C594        C  0.71182384  0.03989033  0.21022743     0.92290
C595        C  0.71017093  0.97856781  0.28332548     0.84430
C596        C  0.78697379  0.03979298  0.21289516     0.90710
N597        N  0.66404061  0.92026714  0.32480358    -0.27400
N598        N  0.65496801  0.94898217  0.33743541    -0.35250
C599        C  0.67016573  0.97431258  0.32499397     0.00950
C600        C  0.68934319  0.96079851  0.30310336     0.06970
C601        C  0.68485554  0.92656257  0.30352487    -0.06130
H602        H  0.66715836  0.00057585  0.33096590     0.07640
H603        H  0.69616579  0.90753468  0.28980910     0.08840
Cu604      Cu  0.62173771  0.95230623  0.36995480     0.44170
Cu605      Cu  0.64887466  0.87351118  0.33795379     0.41990
Cu606      Cu  0.59471432  0.87255877  0.39974442     0.43880
N607        N  0.58882772  0.94797425  0.40287509    -0.34780
N608        N  0.57982024  0.91892816  0.41477699    -0.29040
C609        C  0.55952029  0.92469538  0.43701542    -0.05140
C610        C  0.55530296  0.95894224  0.43880296     0.07080
C611        C  0.57408648  0.97299250  0.41672428     0.00880
H612        H  0.54845103  0.90533959  0.45056366     0.08530
H613        H  0.57725547  0.99941692  0.41172831     0.07610
N614        N  0.61201513  0.82940306  0.37971589    -0.36230
N615        N  0.63188961  0.82975436  0.35697239    -0.28410
C616        C  0.63877158  0.79795281  0.34929058    -0.03650
C617        C  0.62238233  0.77660349  0.36808557     0.04960
C618        C  0.60564416  0.79736534  0.38707261     0.03050
H619        H  0.65459641  0.79096077  0.33143005     0.08160
H620        H  0.59004070  0.78981331  0.40500857     0.06990
N621        N  0.91583249  0.59615446  0.41212215    -0.27400
N622        N  0.90689350  0.56741242  0.39936821    -0.35250
C623        C  0.92188135  0.54210788  0.41220130     0.00950
C624        C  0.94076815  0.55566818  0.43448354     0.06970
C625        C  0.93634328  0.58990584  0.43387061    -0.06130
H626        H  0.91883682  0.51581981  0.40635283     0.07640
H627        H  0.94740959  0.60895155  0.44790661     0.08840
Cu628      Cu  0.87385951  0.56399522  0.36654998     0.44170
Cu629      Cu  0.90061120  0.64283132  0.39891135     0.41990
Cu630      Cu  0.84645293  0.64368307  0.33711833     0.43880
N631        N  0.84076924  0.56821516  0.33392980    -0.34780
N632        N  0.83162230  0.59722438  0.32214414    -0.29040
C633        C  0.81102338  0.59137746  0.30036511    -0.05140
C634        C  0.80675857  0.55712208  0.29877205     0.07080
C635        C  0.82583149  0.54314649  0.32047023     0.00880
H636        H  0.79970300  0.61069388  0.28712717     0.08530
H637        H  0.82897184  0.51674553  0.32559408     0.07610
N638        N  0.86331558  0.68687478  0.35776550    -0.36230
N639        N  0.88318857  0.68653493  0.38050945    -0.28410
C640        C  0.88957537  0.71832455  0.38893143    -0.03650
C641        C  0.87285661  0.73966379  0.37064029     0.04960
C642        C  0.85645104  0.71890382  0.35114913     0.03050
H643        H  0.90522195  0.72531508  0.40705349     0.08160
H644        H  0.84067190  0.72645183  0.33347416     0.06990
N645        N  0.91547402  0.41888142  0.07197975    -0.27400
N646        N  0.90630516  0.44790245  0.08375391    -0.35250
C647        C  0.92122870  0.47296328  0.07029489     0.00950
C648        C  0.94031512  0.45897838  0.04860587     0.06970
C649        C  0.93607440  0.42471905  0.05020175    -0.06130
H650        H  0.91807492  0.49936845  0.07542298     0.07640
H651        H  0.94742197  0.40539501  0.03698329     0.08840
Cu652      Cu  0.87321621  0.45220250  0.11637216     0.44170
Cu653      Cu  0.90069625  0.37242334  0.08701308     0.41990
Cu654      Cu  0.84652255  0.37346668  0.14878550     0.43880
N655        N  0.84017477  0.44886669  0.14918264    -0.34780
N656        N  0.83125017  0.42013818  0.16194009    -0.29040
C657        C  0.81073864  0.42639725  0.18368910    -0.05140
C658        C  0.80629717  0.46063055  0.18430727     0.07080
C659        C  0.82517618  0.47417981  0.16202087     0.00880
H660        H  0.79969436  0.40736167  0.19773995     0.08530
H661        H  0.82821413  0.50046312  0.15618399     0.07610
N662        N  0.86399836  0.32971520  0.13055508    -0.36230
N663        N  0.88387740  0.32929353  0.10781906    -0.28410
C664        C  0.89079005  0.29724074  0.10135616    -0.03650
C665        C  0.87441027  0.27655643  0.12094276     0.04960
C666        C  0.85765579  0.29796233  0.13912548     0.03050
H667        H  0.90658889  0.28962507  0.08372826     0.08160
H668        H  0.84201939  0.29104319  0.15728200     0.06990
N669        N  0.66578265  0.59722628  0.32247327    -0.27400
N670        N  0.65680950  0.56823529  0.33455774    -0.35330
C671        C  0.67177756  0.54318758  0.32116712     0.00950
C672        C  0.69068409  0.55715472  0.29920624     0.06970
C673        C  0.68629809  0.59138499  0.30057938    -0.06130
H674        H  0.66873299  0.51679654  0.32646512     0.07640
H675        H  0.69743227  0.61068942  0.28703932     0.08840
Cu676      Cu  0.62379781  0.56397784  0.36731148     0.44170
Cu677      Cu  0.65067336  0.64365651  0.33693413     0.41990
Cu678      Cu  0.59651403  0.64284333  0.39872902     0.43880
N679        N  0.59067812  0.56736439  0.39999190    -0.34780
N680        N  0.58156698  0.59613239  0.41244787    -0.29040
C681        C  0.56096840  0.58988735  0.43407971    -0.05140
C682        C  0.55665939  0.55562238  0.43491065     0.07080
C683        C  0.57571410  0.54204185  0.41289246     0.00880
H684        H  0.54971692  0.60895557  0.44781413     0.08530
H685        H  0.57885139  0.51573954  0.40721995     0.07610
N686        N  0.61335653  0.68654874  0.37938011    -0.36230
N687        N  0.63323008  0.68686403  0.35663478    -0.28410
C688        C  0.63954913  0.71889265  0.34915086    -0.03650
C689        C  0.62277718  0.73968067  0.36806284     0.04960
C690        C  0.60642337  0.71835833  0.38693607     0.03050
H691        H  0.65517183  0.72642051  0.33122996     0.08160
H692        H  0.59061924  0.72537443  0.40481496     0.06990
O693        O  0.52736599  0.50526946  0.03786400    -0.73050
O694        O  0.97017321  0.55173833  0.48225549    -0.74030
O695        O  0.96949638  0.50529330  0.03766173    -0.62650
O696        O  0.52702227  0.55171731  0.48246181    -0.71060
O697        O  0.52760257  0.50905588  0.44569069    -0.70610
O698        O  0.97000887  0.46255223  0.50098476    -0.61870
O699        O  0.96968843  0.50907814  0.44547954    -0.74370
O700        O  0.52694214  0.46254156  0.50116726    -0.73150
Cu701      Cu  0.99851148  0.52994143  0.01140778     1.04560
Cu702      Cu  0.99856031  0.48434482  0.47197391     1.04330
C703        C  0.53602255  0.47648864  0.02835197     0.93150
C704        C  0.96109586  0.53788521  0.45502719     0.92290
C705        C  0.96084328  0.47650645  0.02811347     0.84430
C706        C  0.53620633  0.53785318  0.45530538     0.90710
O707        O  0.71972358  0.51082389  0.28789414    -0.73050
O708        O  0.77690129  0.46450005  0.23208724    -0.74030
O709        O  0.77758692  0.51080362  0.28768016    -0.62650
O710        O  0.72005904  0.46451952  0.23226989    -0.71060
O711        O  0.71948696  0.50726529  0.19566180    -0.70610
O712        O  0.77707271  0.55361373  0.25114770    -0.61870
O713        O  0.77739394  0.50722938  0.19545519    -0.74370
O714        O  0.72014543  0.55363632  0.25136108    -0.73150
Cu715      Cu  0.74856781  0.48622095  0.26132283     1.04560
Cu716      Cu  0.74852230  0.53190246  0.22205705     1.04330
C717        C  0.71108341  0.53963894  0.27851209     0.93150
C718        C  0.78598032  0.47840098  0.20490482     0.92290
C719        C  0.78623850  0.53960993  0.27822867     0.84430
C720        C  0.71089586  0.47843496  0.20514736     0.90710
N721        N  0.58150769  0.41891091  0.07193643    -0.27400
N722        N  0.59048577  0.44790526  0.08405198    -0.35250
C723        C  0.57544676  0.47294144  0.07080699     0.00950
C724        C  0.55648471  0.45896952  0.04891268     0.06970
C725        C  0.56091639  0.42474547  0.05016354    -0.06130
H726        H  0.57847623  0.49933160  0.07616340     0.07640
H727        H  0.54975790  0.40543897  0.03663038     0.08840
Cu728      Cu  0.62355284  0.45223159  0.11671168     0.44170
Cu729      Cu  0.59666451  0.37247218  0.08624567     0.41990
Cu730      Cu  0.65081688  0.37344695  0.14804483     0.43880
N731        N  0.65661406  0.44891402  0.14948826    -0.34780
N732        N  0.66571749  0.42014896  0.16191419    -0.29040
C733        C  0.68623891  0.42639980  0.18366716    -0.05140
C734        C  0.69050471  0.46067104  0.18461995     0.07080
C735        C  0.67150806  0.47424760  0.16253423     0.00880
H736        H  0.69746384  0.40733284  0.19740857     0.08530
H737        H  0.66835831  0.50055110  0.15691913     0.07610
N738        N  0.63398568  0.32969889  0.12874109    -0.36230
N739        N  0.61411562  0.32930901  0.10599317    -0.28410
C740        C  0.60777943  0.29725206  0.09860676    -0.03650
C741        C  0.62453683  0.27653003  0.11759014     0.04960
C742        C  0.64089905  0.29791794  0.13639676     0.03050
H743        H  0.59214229  0.28965959  0.08072480     0.08160
H744        H  0.65668343  0.29096599  0.15431833     0.06990
N745        N  0.91742256  0.09602379  0.58041920    -0.27400
N746        N  0.90844796  0.06726999  0.59306004    -0.35250
C747        C  0.92319033  0.04193015  0.57979419     0.00950
C748        C  0.94194382  0.05549404  0.55734036     0.06970
C749        C  0.93769953  0.08976119  0.55831766    -0.06130
H750        H  0.92000301  0.01562134  0.58537575     0.07640
H751        H  0.94867868  0.10880850  0.54420216     0.08840
Cu752      Cu  0.87551179  0.06397789  0.62606173     0.44170
Cu753      Cu  0.90239553  0.14271153  0.59402399     0.41990
Cu754      Cu  0.84822455  0.14378804  0.65579476     0.43880
N755        N  0.84230745  0.06832668  0.65849833    -0.34780
N756        N  0.83319132  0.09733342  0.67037756    -0.29040
C757        C  0.81235281  0.09150929  0.69179068    -0.05140
C758        C  0.80790491  0.05727877  0.69303682     0.07080
C759        C  0.82711991  0.04329515  0.67153099     0.00880
H760        H  0.80094818  0.11083438  0.70492868     0.08530
H761        H  0.83012267  0.01690907  0.66615585     0.07610
N762        N  0.86519156  0.18691291  0.63520433    -0.36230
N763        N  0.88506979  0.18648505  0.61246739    -0.28410
C764        C  0.89146514  0.21824149  0.60397075    -0.03650
C765        C  0.87474512  0.23965196  0.62220096     0.04960
C766        C  0.85833224  0.21896829  0.64174189     0.03050
H767        H  0.90708746  0.22515939  0.58579530     0.08160
H768        H  0.84252073  0.22658406  0.65935255     0.06990
O769        O  0.97058944  0.00884756  0.54526488    -0.73050
O770        O  0.52671845  0.96240934  0.98751541    -0.74030
O771        O  0.52849762  0.00876909  0.54321527    -0.62650
O772        O  0.96980156  0.96249373  0.98953121    -0.71060
O773        O  0.96863677  0.00533246  0.95305815    -0.70610
O774        O  0.52724429  0.05150262  0.50662012    -0.61870
O775        O  0.52646665  0.00525208  0.95101911    -0.74370
O776        O  0.97042356  0.05160434  0.50866565    -0.73150
Cu777      Cu  0.99892863  0.98416067  0.51773427     1.04560
Cu778      Cu  0.99816175  0.02986204  0.97850732     1.04330
C779        C  0.96185331  0.03770035  0.53611253     0.93150
C780        C  0.53527367  0.97642511  0.96010926     0.92290
C781        C  0.53693670  0.03757625  0.53343503     0.84430
C782        C  0.96015067  0.97652554  0.96273581     0.90710
N783        N  0.66729699  0.09738795  0.66492883    -0.27400
N784        N  0.65828018  0.06832854  0.65302709    -0.35250
C785        C  0.67300489  0.04332169  0.66688292     0.00950
C786        C  0.69178672  0.05738471  0.68896903     0.06970
C787        C  0.68758731  0.09163416  0.68718056    -0.06130
H788        H  0.66983251  0.01689300  0.66187404     0.07640
H789        H  0.69867417  0.11100014  0.70071829     0.08840
Cu790      Cu  0.62538991  0.06390898  0.62008423     0.44170
Cu791      Cu  0.65245819  0.14375578  0.64983024     0.41990
Cu792      Cu  0.59833042  0.14260398  0.58800599     0.43880
N793        N  0.59215592  0.06715315  0.58757089    -0.34780
N794        N  0.58310668  0.09585472  0.57492614    -0.29040
C795        C  0.56228461  0.08955346  0.55365956    -0.05140
C796        C  0.55776581  0.05532518  0.55325127     0.07080
C797        C  0.57693485  0.04181862  0.57514253     0.00880
H798        H  0.55099975  0.10857329  0.53992760     0.08530
H799        H  0.57992454  0.01556108  0.58111539     0.07610
N800        N  0.61534244  0.18641554  0.60687882    -0.36230
N801        N  0.63520513  0.18685223  0.62963611    -0.28410
C802        C  0.64160351  0.21892062  0.63686203    -0.03650
C803        C  0.62489522  0.23960742  0.61777266     0.04960
C804        C  0.60849508  0.21818440  0.59905754     0.03050
H805        H  0.65720727  0.22654562  0.65477459     0.08160
H806        H  0.59268858  0.22510394  0.58115218     0.06990
N807        N  0.82991068  0.92014716  0.82984826    -0.27400
N808        N  0.83889239  0.94890344  0.84251956    -0.35250
C809        C  0.82407221  0.97423141  0.82941106     0.00950
C810        C  0.80525572  0.96066288  0.80703262     0.06970
C811        C  0.80954896  0.92640315  0.80787976    -0.06130
H812        H  0.82724430  0.00053904  0.83505225     0.07640
H813        H  0.79854140  0.90735495  0.79377309     0.08840
Cu814      Cu  0.87189046  0.95226343  0.87541380     0.44170
Cu815      Cu  0.84498863  0.87345141  0.84328899     0.41990
Cu816      Cu  0.89915413  0.87252941  0.90506289     0.43880
N817        N  0.90502815  0.94797886  0.90795648    -0.34780
N818        N  0.91413520  0.91897476  0.91980685    -0.29040
C819        C  0.93488805  0.92480508  0.94135643    -0.05140
C820        C  0.93928765  0.95904218  0.94273337     0.07080
C821        C  0.92013765  0.97302149  0.92114853     0.00880
H822        H  0.94626428  0.90548198  0.95450683     0.08530
H823        H  0.91712154  0.99940895  0.91583321     0.07610
N824        N  0.88218744  0.82935945  0.88452651    -0.36230
N825        N  0.86231154  0.82971610  0.86178712    -0.28410
C826        C  0.85588361  0.79792775  0.85340339    -0.03650
C827        C  0.87257989  0.77657646  0.87171538     0.04960
C828        C  0.88901249  0.79732627  0.89117901     0.03050
H829        H  0.84024032  0.79094648  0.83527343     0.08160
H830        H  0.90479948  0.78976963  0.90883920     0.06990
O831        O  0.77652326  0.00727718  0.79522990    -0.73050
O832        O  0.72037470  0.05385875  0.73768081    -0.74030
O833        O  0.71860893  0.00735761  0.79319787    -0.62650
O834        O  0.77729854  0.05377419  0.73972197    -0.71060
O835        O  0.77847483  0.01102062  0.70308463    -0.70610
O836        O  0.71986019  0.96469214  0.75645994    -0.61870
O837        O  0.72063774  0.01108421  0.70104123    -0.74370
O838        O  0.77668676  0.96460574  0.75846591    -0.73150
Cu839      Cu  0.74817087  0.03203243  0.76781703     1.04560
Cu840      Cu  0.74894273  0.98641586  0.72842203     1.04330
C841        C  0.78527748  0.97845956  0.78594492     0.93150
C842        C  0.71182382  0.03989034  0.71022745     0.92290
C843        C  0.71017093  0.97856780  0.78332548     0.84430
C844        C  0.78697377  0.03979298  0.71289515     0.90710
N845        N  0.66404061  0.92026713  0.82480356    -0.27400
N846        N  0.65496800  0.94898217  0.83743537    -0.35250
C847        C  0.67016572  0.97431258  0.82499394     0.00950
C848        C  0.68934318  0.96079850  0.80310335     0.06970
C849        C  0.68485555  0.92656256  0.80352487    -0.06130
H850        H  0.66715833  0.00057585  0.83096585     0.07640
H851        H  0.69616581  0.90753467  0.78980912     0.08840
Cu852      Cu  0.62173767  0.95230623  0.86995473     0.44170
Cu853      Cu  0.64887466  0.87351118  0.83795378     0.41990
Cu854      Cu  0.59471427  0.87255877  0.89974434     0.43880
N855        N  0.58882768  0.94797424  0.90287502    -0.34780
N856        N  0.57982020  0.91892816  0.91477692    -0.29040
C857        C  0.55952026  0.92469538  0.93701536    -0.05140
C858        C  0.55530294  0.95894223  0.93880291     0.07080
C859        C  0.57408646  0.97299249  0.91672423     0.00880
H860        H  0.54845101  0.90533959  0.95056361     0.08530
H861        H  0.57725546  0.99941692  0.91172826     0.07610
N862        N  0.61201510  0.82940305  0.87971584    -0.36230
N863        N  0.63188960  0.82975435  0.85697236    -0.28410
C864        C  0.63877158  0.79795280  0.84929057    -0.03650
C865        C  0.62238231  0.77660348  0.86808554     0.04960
C866        C  0.60564413  0.79736533  0.88707255     0.03050
H867        H  0.65459643  0.79096076  0.83143006     0.08160
H868        H  0.59004065  0.78981330  0.90500849     0.06990
N869        N  0.91583247  0.59615446  0.91212215    -0.27400
N870        N  0.90689350  0.56741242  0.89936819    -0.35250
C871        C  0.92188135  0.54210788  0.91220127     0.00950
C872        C  0.94076813  0.55566817  0.93448354     0.06970
C873        C  0.93634325  0.58990584  0.93387063    -0.06130
H874        H  0.91883683  0.51581981  0.90635278     0.07640
H875        H  0.94740955  0.60895155  0.94790665     0.08840
Cu876      Cu  0.87385954  0.56399522  0.86654992     0.44170
Cu877      Cu  0.90061117  0.64283131  0.89891137     0.41990
Cu878      Cu  0.84645292  0.64368307  0.83711833     0.43880
N879        N  0.84076927  0.56821516  0.83392975    -0.34780
N880        N  0.83162231  0.59722438  0.82214410    -0.29040
C881        C  0.81102339  0.59137746  0.80036508    -0.05140
C882        C  0.80675859  0.55712208  0.79877200     0.07080
C883        C  0.82583152  0.54314649  0.82047016     0.00880
H884        H  0.79970299  0.61069388  0.78712715     0.08530
H885        H  0.82897188  0.51674552  0.82559400     0.07610
N886        N  0.86331556  0.68687477  0.85776551    -0.36230
N887        N  0.88318854  0.68653493  0.88050946    -0.28410
C888        C  0.88957535  0.71832454  0.88893143    -0.03650
C889        C  0.87285659  0.73966378  0.87064029     0.04960
C890        C  0.85645103  0.71890382  0.85114913     0.03050
H891        H  0.90522193  0.72531507  0.90705350     0.08160
H892        H  0.84067189  0.72645183  0.83347414     0.06990
N893        N  0.91547403  0.41888141  0.57197973    -0.27400
N894        N  0.90630517  0.44790244  0.58375388    -0.35250
C895        C  0.92122870  0.47296327  0.57029487     0.00950
C896        C  0.94031513  0.45897837  0.54860585     0.06970
C897        C  0.93607442  0.42471904  0.55020174    -0.06130
H898        H  0.91807492  0.49936844  0.57542295     0.07640
H899        H  0.94742199  0.40539500  0.53698328     0.08840
Cu900      Cu  0.87321621  0.45220249  0.61637213     0.44170
Cu901      Cu  0.90069627  0.37242333  0.58701307     0.41990
Cu902      Cu  0.84652256  0.37346667  0.64878546     0.43880
N903        N  0.84017477  0.44886669  0.64918259    -0.34780
N904        N  0.83125017  0.42013817  0.66194004    -0.29040
C905        C  0.81073863  0.42639725  0.68368905    -0.05140
C906        C  0.80629717  0.46063055  0.68430722     0.07080
C907        C  0.82517617  0.47417980  0.66202082     0.00880
H908        H  0.79969436  0.40736167  0.69773991     0.08530
H909        H  0.82821413  0.50046311  0.65618395     0.07610
N910        N  0.86399838  0.32971520  0.63055507    -0.36230
N911        N  0.88387742  0.32929352  0.60781906    -0.28410
C912        C  0.89079008  0.29724073  0.60135618    -0.03650
C913        C  0.87441030  0.27655643  0.62094278     0.04960
C914        C  0.85765581  0.29796233  0.63912548     0.03050
H915        H  0.90658893  0.28962506  0.58372829     0.08160
H916        H  0.84201941  0.29104319  0.65728199     0.06990
N917        N  0.66578268  0.59722627  0.82247328    -0.27400
N918        N  0.65680951  0.56823527  0.83455773    -0.35330
C919        C  0.67177757  0.54318757  0.82116710     0.00950
C920        C  0.69068411  0.55715472  0.79920624     0.06970
C921        C  0.68629811  0.59138498  0.80057939    -0.06130
H922        H  0.66873300  0.51679653  0.82646509     0.07640
H923        H  0.69743230  0.61068941  0.78703933     0.08840
Cu924      Cu  0.62379781  0.56397782  0.86731145     0.44170
Cu925      Cu  0.65067339  0.64365650  0.83693414     0.41990
Cu926      Cu  0.59651401  0.64284332  0.89872896     0.43880
N927        N  0.59067811  0.56736438  0.89999185    -0.34780
N928        N  0.58156696  0.59613238  0.91244781    -0.29040
C929        C  0.56096838  0.58988734  0.93407965    -0.05140
C930        C  0.55665938  0.55562237  0.93491060     0.07080
C931        C  0.57571410  0.54204183  0.91289242     0.00880
H932        H  0.54971689  0.60895556  0.94781406     0.08530
H933        H  0.57885139  0.51573952  0.90721993     0.07610
N934        N  0.61335652  0.68654873  0.87938007    -0.36230
N935        N  0.63323008  0.68686403  0.85663477    -0.28410
C936        C  0.63954914  0.71889265  0.84915085    -0.03650
C937        C  0.62277718  0.73968066  0.86806281     0.04960
C938        C  0.60642335  0.71835832  0.88693601     0.03050
H939        H  0.65517186  0.72642050  0.83122997     0.08160
H940        H  0.59061920  0.72537442  0.90481489     0.06990
O941        O  0.52736599  0.50526945  0.53786403    -0.73050
O942        O  0.97017320  0.55173833  0.98225549    -0.74030
O943        O  0.96949639  0.50529329  0.53766172    -0.62650
O944        O  0.52702226  0.55171730  0.98246177    -0.71060
O945        O  0.52760256  0.50905586  0.94569066    -0.70610
O946        O  0.97000886  0.46255224  0.00098478    -0.61870
O947        O  0.96968842  0.50907813  0.94547955    -0.74370
O948        O  0.52694213  0.46254156  0.00116725    -0.73150
Cu949      Cu  0.99851149  0.52994142  0.51140779     1.04560
Cu950      Cu  0.99856029  0.48434481  0.97197392     1.04330
C951        C  0.53602255  0.47648864  0.52835199     0.93150
C952        C  0.96109585  0.53788521  0.95502719     0.92290
C953        C  0.96084329  0.47650644  0.52811346     0.84430
C954        C  0.53620632  0.53785317  0.95530534     0.90710
O955        O  0.71972360  0.51082389  0.78789412    -0.73050
O956        O  0.77690129  0.46450005  0.73208720    -0.74030
O957        O  0.77758694  0.51080362  0.78768012    -0.62650
O958        O  0.72005905  0.46451951  0.73226988    -0.71060
O959        O  0.71948696  0.50726528  0.69566179    -0.70610
O960        O  0.77707272  0.55361373  0.75114765    -0.61870
O961        O  0.77739394  0.50722938  0.69545515    -0.74370
O962        O  0.72014544  0.55363631  0.75136106    -0.73150
Cu963      Cu  0.74856782  0.48622094  0.76132281     1.04560
Cu964      Cu  0.74852231  0.53190245  0.72205702     1.04330
C965        C  0.71108343  0.53963894  0.77851207     0.93150
C966        C  0.78598033  0.47840098  0.70490478     0.92290
C967        C  0.78623851  0.53960993  0.77822863     0.84430
C968        C  0.71089586  0.47843495  0.70514735     0.90710
N969        N  0.58150769  0.41891090  0.57193645    -0.27400
N970        N  0.59048576  0.44790525  0.58405200    -0.35250
C971        C  0.57544675  0.47294144  0.57080701     0.00950
C972        C  0.55648470  0.45896952  0.54891270     0.06970
C973        C  0.56091639  0.42474547  0.55016355    -0.06130
H974        H  0.57847622  0.49933159  0.57616343     0.07640
H975        H  0.54975791  0.40543897  0.53663038     0.08840
Cu976      Cu  0.62355283  0.45223158  0.61671170     0.44170
Cu977      Cu  0.59666451  0.37247218  0.58624568     0.41990
Cu978      Cu  0.65081686  0.37344694  0.64804487     0.43880
N979        N  0.65661406  0.44891401  0.64948828    -0.34780
N980        N  0.66571748  0.42014895  0.66191422    -0.29040
C981        C  0.68623890  0.42639979  0.68366718    -0.05140
C982        C  0.69050471  0.46067103  0.68461995     0.07080
C983        C  0.67150806  0.47424759  0.66253423     0.00880
H984        H  0.69746383  0.40733284  0.69740859     0.08530
H985        H  0.66835831  0.50055108  0.65691912     0.07610
N986        N  0.63398567  0.32969889  0.62874112    -0.36230
N987        N  0.61411562  0.32930901  0.60599318    -0.28410
C988        C  0.60777944  0.29725206  0.59860675    -0.03650
C989        C  0.62453683  0.27653003  0.61759014     0.04960
C990        C  0.64089904  0.29791794  0.63639677     0.03050
H991        H  0.59214231  0.28965959  0.58072477     0.08160
H992        H  0.65668341  0.29096598  0.65431836     0.06990
loop_ 
_geom_bond_atom_site_label_1 
_geom_bond_atom_site_label_2 
_geom_bond_distance 
_geom_bond_site_symmetry_2 
_ccdc_geom_bond_type 
N1            N2   1.323       .  A
N1            C5   1.343       .  A
N1           Cu9   2.070       .  S
N2            C3   1.347       .  A
N2           Cu8   2.076       .  S
C3            C4   1.383       .  A
C3            H6   1.081       .  S
C4            C5   1.381       .  A
C4           C35   1.467       .  S
C5            H7   1.082       .  S
Cu8          N11   2.076       .  S
Cu9          N19   2.070       .  S
Cu10         N12   2.072       .  S
Cu10         N18   2.072       .  S
N11          N12   1.323       .  A
N11          C15   1.346       .  A
N12          C13   1.344       .  A
C13          C14   1.381       .  A
C13          H16   1.082       .  S
C14          C15   1.382       .  A
C14         C100   1.466       .  S
C15          H17   1.081       .  S
N18          N19   1.322       .  A
N18          C22   1.345       .  A
N19          C20   1.345       .  A
C20          C21   1.383       .  A
C20          H23   1.082       .  S
C21          C22   1.383       .  A
C21         C169   1.470       .  S
C22          H24   1.082       .  S
O25         Cu33   2.018   1_545  S
O25          C35   1.278       .  A
O26        Cu777   2.004   1_455  S
O26          C36   1.277       .  A
O27        Cu529   2.017   1_445  S
O27          C37   1.278       .  A
O28        Cu281   2.003       .  S
O28          C38   1.277       .  A
O29         Cu34   2.014       .  S
O29          C38   1.278   1_545  A
O30        Cu778   1.999   1_454  S
O30          C37   1.276       .  A
O31        Cu530   2.014   1_455  S
O31          C36   1.278   1_545  A
O32        Cu282   2.001   1_554  S
O32          C35   1.277       .  A
Cu33        O770   2.004   1_554  S
Cu33        O523   2.017   1_565  S
Cu33        O276   2.003   1_554  S
Cu33       Cu282   2.378   1_564  S
Cu34        O774   1.999       .  S
Cu34        O527   2.014       .  S
Cu34        O280   2.001       .  S
Cu34       Cu281   2.378   1_545  S
C36         C114   1.466       .  S
C37          C52   1.466       .  S
C38          C76   1.466       .  S
N39          N40   1.323       .  A
N39          C43   1.344       .  A
N39         Cu47   2.072       .  S
N40          C41   1.346       .  A
N40         Cu46   2.076       .  S
C41          C42   1.382       .  A
C41          H44   1.081       .  S
C42          C43   1.381       .  A
C42          C98   1.466       .  S
C43          H45   1.082       .  S
Cu46         N49   2.076       .  S
Cu47         N57   2.072       .  S
Cu48         N50   2.070       .  S
Cu48         N56   2.070       .  S
N49          N50   1.323       .  A
N49          C53   1.347       .  A
N50          C51   1.343       .  A
C51          C52   1.381       .  A
C51          H54   1.082       .  S
C52          C53   1.383       .  A
C53          H55   1.081       .  S
N56          N57   1.322       .  A
N56          C60   1.345       .  A
N57          C58   1.345       .  A
C58          C59   1.383       .  A
C58          H61   1.082       .  S
C59          C60   1.383       .  A
C59         C245   1.470       .  S
C60          H62   1.082       .  S
N63          N64   1.323       .  A
N63          C67   1.343       .  A
N63         Cu71   2.071       .  S
N64          C65   1.347       .  A
N64         Cu70   2.076       .  S
C65          C66   1.383       .  A
C65          H68   1.081   1_565  S
C66          C67   1.381       .  A
C66          C97   1.466       .  S
C67          H69   1.082       .  S
Cu70         N73   2.076       .  S
Cu71         N81   2.070       .  S
Cu72         N74   2.072       .  S
Cu72         N80   2.071       .  S
N73          N74   1.323       .  A
N73          C77   1.346       .  A
N74          C75   1.344       .  A
C75          C76   1.381       .  A
C75          H78   1.082       .  S
C76          C77   1.382       .  A
C77          H79   1.081       .  S
N80          N81   1.322       .  A
N80          C84   1.345       .  A
N81          C82   1.345       .  A
C82          C83   1.383       .  A
C82          H85   1.082       .  S
C83          C84   1.383       .  A
C83         C145   1.470       .  S
C84          H86   1.082       .  S
O87         Cu95   2.018       .  S
O87          C97   1.278   1_545  A
O88         Cu95   2.004       .  S
O88          C98   1.277       .  A
O89         Cu95   2.017       .  S
O89          C99   1.278   1_545  A
O90         Cu95   2.003       .  S
O90         C100   1.277       .  A
O91         Cu96   2.014   1_545  S
O91         C100   1.278       .  A
O92         Cu96   2.000       .  S
O92          C99   1.276       .  A
O93         Cu96   2.014   1_545  S
O93          C98   1.278       .  A
O94         Cu96   2.000       .  S
O94          C97   1.276       .  A
Cu95        Cu96   2.378   1_545  S
C99         C104   1.466       .  S
N101        N102   1.323       .  A
N101        C105   1.343       .  A
N101       Cu109   2.070       .  S
N102        C103   1.347       .  A
N102       Cu108   2.076       .  S
C103        C104   1.383       .  A
C103        H106   1.081   1_565  S
C104        C105   1.381       .  A
C105        H107   1.082       .  S
Cu108       N111   2.076       .  S
Cu109       N119   2.070       .  S
Cu110       N112   2.072       .  S
Cu110       N118   2.071       .  S
N111        N112   1.323       .  A
N111        C115   1.346       .  A
N112        C113   1.344       .  A
C113        C114   1.381       .  A
C113        H116   1.082       .  S
C114        C115   1.383       .  A
C115        H117   1.081       .  S
N118        N119   1.322       .  A
N118        C122   1.345       .  A
N119        C120   1.345       .  A
C120        C121   1.383       .  A
C120        H123   1.082       .  S
C121        C122   1.383       .  A
C121        C193   1.470       .  S
C122        H124   1.082       .  S
N125        N126   1.323       .  A
N125        C129   1.343       .  A
N125       Cu133   2.070       .  S
N126        C127   1.347       .  A
N126       Cu132   2.076       .  S
C127        C128   1.383       .  A
C127        H130   1.081       .  S
C128        C129   1.381       .  A
C128        C208   1.466       .  S
C129        H131   1.082       .  S
Cu132       N135   2.076       .  S
Cu133       N143   2.070       .  S
Cu134       N136   2.072       .  S
Cu134       N142   2.072       .  S
N135        N136   1.323       .  A
N135        C139   1.346       .  A
N136        C137   1.344       .  A
C137        C138   1.381       .  A
C137        H140   1.082       .  S
C138        C139   1.382       .  A
C138        C223   1.466       .  S
C139        H141   1.081       .  S
N142        N143   1.322       .  A
N142        C146   1.345       .  A
N143        C144   1.345       .  A
C144        C145   1.383       .  A
C144        H147   1.082       .  S
C145        C146   1.383       .  A
C146        H148   1.082       .  S
N149        N150   1.323       .  A
N149        C153   1.344       .  A
N149       Cu157   2.073       .  S
N150        C151   1.346       .  A
N150       Cu156   2.076       .  S
C151        C152   1.382       .  A
C151        H154   1.081       .  S
C152        C153   1.381       .  A
C152        C209   1.466       .  S
C153        H155   1.082       .  S
Cu156       N159   2.076       .  S
Cu157       N167   2.072       .  S
Cu158       N160   2.070       .  S
Cu158       N166   2.069       .  S
N159        N160   1.323       .  A
N159        C163   1.347       .  A
N160        C161   1.343       .  A
C161        C162   1.381       .  A
C161        H164   1.082       .  S
C162        C163   1.383       .  A
C162        C222   1.466       .  S
C163        H165   1.081       .  S
N166        N167   1.322       .  A
N166        C170   1.344       .  A
N167        C168   1.345       .  A
C168        C169   1.383       .  A
C168        H171   1.082       .  S
C169        C170   1.383       .  A
C170        H172   1.082       .  S
N173        N174   1.323       .  A
N173        C177   1.344       .  A
N173       Cu181   2.071       .  S
N174        C175   1.346       .  A
N174       Cu180   2.076       .  S
C175        C176   1.382       .  A
C175        H178   1.081       .  S
C176        C177   1.381       .  A
C176        C221   1.466       .  S
C177        H179   1.082       .  S
Cu180       N183   2.076       .  S
Cu181       N191   2.071       .  S
Cu182       N184   2.071       .  S
Cu182       N190   2.070       .  S
N183        N184   1.323       .  A
N183        C187   1.347       .  A
N184        C185   1.343       .  A
C185        C186   1.381       .  A
C185        H188   1.082       .  S
C186        C187   1.383       .  A
C186        C210   1.466       .  S
C187        H189   1.081       .  S
N190        N191   1.322       .  A
N190        C194   1.345       .  A
N191        C192   1.345       .  A
C192        C193   1.383       .  A
C192        H195   1.082       .  S
C193        C194   1.383       .  A
C194        H196   1.082       .  S
O197       Cu701   2.014   1_455  S
O197        C207   1.278       .  A
O198       Cu453   2.000       .  S
O198        C208   1.276       .  A
O199       Cu205   2.014       .  S
O199        C209   1.278       .  A
O200       Cu949   2.000   1_455  S
O200        C210   1.276       .  A
O201       Cu702   2.017   1_455  S
O201        C210   1.278       .  A
O202       Cu206   2.003       .  S
O202        C457   1.277       .  A
O203       Cu206   2.017       .  S
O203        C208   1.278       .  A
O204       Cu702   2.003   1_455  S
O204        C455   1.277       .  A
Cu205       O693   2.014       .  S
Cu205       O446   2.000   1_554  S
Cu205       O944   2.000   1_554  S
Cu205      Cu454   2.378   1_554  S
Cu206       O697   2.017       .  S
Cu206       O700   2.003       .  S
Cu206      Cu453   2.378       .  S
C207        C228   1.466       .  S
C207        O452   1.277       .  A
C209        O450   1.277       .  A
O211       Cu219   2.014       .  S
O211        C221   1.278       .  A
O212       Cu219   2.000       .  S
O212        C222   1.276       .  A
O213       Cu219   2.015       .  S
O213        C223   1.278       .  A
O214       Cu219   2.001       .  S
O214        C224   1.277       .  A
O215       Cu220   2.017       .  S
O215        C224   1.278       .  A
O216       Cu220   2.003       .  S
O216        C223   1.277       .  A
O217       Cu220   2.017       .  S
O217        C222   1.278       .  A
O218       Cu220   2.003       .  S
O218        C221   1.277       .  A
Cu219      Cu220   2.378       .  S
C224        C238   1.466       .  S
N225        N226   1.323       .  A
N225        C229   1.344       .  A
N225       Cu233   2.072       .  S
N226        C227   1.346       .  A
N226       Cu232   2.076       .  S
C227        C228   1.382       .  A
C227        H230   1.081       .  S
C228        C229   1.381       .  A
C229        H231   1.082       .  S
Cu232       N235   2.076       .  S
Cu233       N243   2.071       .  S
Cu234       N236   2.070       .  S
Cu234       N242   2.070       .  S
N235        N236   1.323       .  A
N235        C239   1.347       .  A
N236        C237   1.343       .  A
C237        C238   1.381       .  A
C237        H240   1.082       .  S
C238        C239   1.383       .  A
C239        H241   1.081       .  S
N242        N243   1.322       .  A
N242        C246   1.344       .  A
N243        C244   1.345       .  A
C244        C245   1.383       .  A
C244        H247   1.082       .  S
C245        C246   1.383       .  A
C246        H248   1.082       .  S
N249        N250   1.323       .  A
N249        C253   1.343       .  A
N249       Cu257   2.070       .  S
N250        C251   1.347       .  A
N250       Cu256   2.076       .  S
C251        C252   1.383       .  A
C251        H254   1.081       .  S
C252        C253   1.381       .  A
C252        C283   1.467       .  S
C253        H255   1.082       .  S
Cu256       N259   2.076       .  S
Cu257       N267   2.070       .  S
Cu258       N260   2.072       .  S
Cu258       N266   2.072       .  S
N259        N260   1.323       .  A
N259        C263   1.346       .  A
N260        C261   1.344       .  A
C261        C262   1.381       .  A
C261        H264   1.082       .  S
C262        C263   1.382       .  A
C262        C348   1.466       .  S
C263        H265   1.081       .  S
N266        N267   1.322       .  A
N266        C270   1.345       .  A
N267        C268   1.345       .  A
C268        C269   1.383       .  A
C268        H271   1.082       .  S
C269        C270   1.383       .  A
C269        C417   1.470       .  S
C270        H272   1.082       .  S
O273       Cu281   2.018   1_545  S
O273        C283   1.278       .  A
O274       Cu529   2.004   1_456  S
O274        C284   1.277       .  A
O275       Cu777   2.017   1_445  S
O275        C285   1.278       .  A
O276        C286   1.277       .  A
O277       Cu282   2.014       .  S
O277        C286   1.278   1_545  A
O278       Cu530   1.999   1_455  S
O278        C285   1.276       .  A
O279       Cu778   2.014   1_455  S
O279        C284   1.278   1_545  A
O280        C283   1.277       .  A
Cu281       O522   2.004       .  S
Cu281       O771   2.017   1_565  S
Cu282       O526   1.999   1_556  S
Cu282       O775   2.014       .  S
C284        C362   1.466       .  S
C285        C300   1.466       .  S
C286        C324   1.466       .  S
N287        N288   1.323       .  A
N287        C291   1.344       .  A
N287       Cu295   2.072       .  S
N288        C289   1.346       .  A
N288       Cu294   2.076       .  S
C289        C290   1.382       .  A
C289        H292   1.081       .  S
C290        C291   1.381       .  A
C290        C346   1.466       .  S
C291        H293   1.082       .  S
Cu294       N297   2.076       .  S
Cu295       N305   2.072       .  S
Cu296       N298   2.070       .  S
Cu296       N304   2.070       .  S
N297        N298   1.323       .  A
N297        C301   1.347       .  A
N298        C299   1.343       .  A
C299        C300   1.381       .  A
C299        H302   1.082       .  S
C300        C301   1.383       .  A
C301        H303   1.081       .  S
N304        N305   1.322       .  A
N304        C308   1.345       .  A
N305        C306   1.345       .  A
C306        C307   1.383       .  A
C306        H309   1.082       .  S
C307        C308   1.383       .  A
C307        C493   1.470       .  S
C308        H310   1.082       .  S
N311        N312   1.323       .  A
N311        C315   1.343       .  A
N311       Cu319   2.071       .  S
N312        C313   1.347       .  A
N312       Cu318   2.076       .  S
C313        C314   1.383       .  A
C313        H316   1.081   1_565  S
C314        C315   1.381       .  A
C314        C345   1.466       .  S
C315        H317   1.082       .  S
Cu318       N321   2.076       .  S
Cu319       N329   2.070       .  S
Cu320       N322   2.072       .  S
Cu320       N328   2.071       .  S
N321        N322   1.323       .  A
N321        C325   1.346       .  A
N322        C323   1.344       .  A
C323        C324   1.381       .  A
C323        H326   1.082       .  S
C324        C325   1.382       .  A
C325        H327   1.081       .  S
N328        N329   1.322       .  A
N328        C332   1.345       .  A
N329        C330   1.345       .  A
C330        C331   1.383       .  A
C330        H333   1.082       .  S
C331        C332   1.383       .  A
C331        C393   1.470       .  S
C332        H334   1.082       .  S
O335       Cu343   2.018       .  S
O335        C345   1.278   1_545  A
O336       Cu343   2.004       .  S
O336        C346   1.277       .  A
O337       Cu343   2.017       .  S
O337        C347   1.278   1_545  A
O338       Cu343   2.003       .  S
O338        C348   1.277       .  A
O339       Cu344   2.014   1_545  S
O339        C348   1.278       .  A
O340       Cu344   2.000       .  S
O340        C347   1.276       .  A
O341       Cu344   2.014   1_545  S
O341        C346   1.278       .  A
O342       Cu344   2.000       .  S
O342        C345   1.276       .  A
Cu343      Cu344   2.378   1_545  S
C347        C352   1.466       .  S
N349        N350   1.323       .  A
N349        C353   1.343       .  A
N349       Cu357   2.070       .  S
N350        C351   1.347       .  A
N350       Cu356   2.076       .  S
C351        C352   1.383       .  A
C351        H354   1.081   1_565  S
C352        C353   1.381       .  A
C353        H355   1.082       .  S
Cu356       N359   2.076       .  S
Cu357       N367   2.070       .  S
Cu358       N360   2.072       .  S
Cu358       N366   2.071       .  S
N359        N360   1.323       .  A
N359        C363   1.346       .  A
N360        C361   1.344       .  A
C361        C362   1.381       .  A
C361        H364   1.082       .  S
C362        C363   1.383       .  A
C363        H365   1.081       .  S
N366        N367   1.322       .  A
N366        C370   1.345       .  A
N367        C368   1.345       .  A
C368        C369   1.383       .  A
C368        H371   1.082       .  S
C369        C370   1.383       .  A
C369        C441   1.470       .  S
C370        H372   1.082       .  S
N373        N374   1.323       .  A
N373        C377   1.343       .  A
N373       Cu381   2.070       .  S
N374        C375   1.347       .  A
N374       Cu380   2.076       .  S
C375        C376   1.383       .  A
C375        H378   1.081       .  S
C376        C377   1.381       .  A
C376        C456   1.466       .  S
C377        H379   1.082       .  S
Cu380       N383   2.076       .  S
Cu381       N391   2.070       .  S
Cu382       N384   2.072       .  S
Cu382       N390   2.072       .  S
N383        N384   1.323       .  A
N383        C387   1.346       .  A
N384        C385   1.344       .  A
C385        C386   1.381       .  A
C385        H388   1.082       .  S
C386        C387   1.382       .  A
C386        C471   1.466       .  S
C387        H389   1.081       .  S
N390        N391   1.322       .  A
N390        C394   1.345       .  A
N391        C392   1.345       .  A
C392        C393   1.383       .  A
C392        H395   1.082       .  S
C393        C394   1.383       .  A
C394        H396   1.082       .  S
N397        N398   1.323       .  A
N397        C401   1.344       .  A
N397       Cu405   2.073       .  S
N398        C399   1.346       .  A
N398       Cu404   2.076       .  S
C399        C400   1.382       .  A
C399        H402   1.081       .  S
C400        C401   1.381       .  A
C400        C457   1.466       .  S
C401        H403   1.082       .  S
Cu404       N407   2.076       .  S
Cu405       N415   2.072       .  S
Cu406       N408   2.070       .  S
Cu406       N414   2.069       .  S
N407        N408   1.323       .  A
N407        C411   1.347       .  A
N408        C409   1.343       .  A
C409        C410   1.381       .  A
C409        H412   1.082       .  S
C410        C411   1.383       .  A
C410        C470   1.466       .  S
C411        H413   1.081       .  S
N414        N415   1.322       .  A
N414        C418   1.344       .  A
N415        C416   1.345       .  A
C416        C417   1.383       .  A
C416        H419   1.082       .  S
C417        C418   1.383       .  A
C418        H420   1.082       .  S
N421        N422   1.323       .  A
N421        C425   1.344       .  A
N421       Cu429   2.071       .  S
N422        C423   1.346       .  A
N422       Cu428   2.076       .  S
C423        C424   1.382       .  A
C423        H426   1.081       .  S
C424        C425   1.381       .  A
C424        C469   1.466       .  S
C425        H427   1.082       .  S
Cu428       N431   2.076       .  S
Cu429       N439   2.071       .  S
Cu430       N432   2.071       .  S
Cu430       N438   2.070       .  S
N431        N432   1.323       .  A
N431        C435   1.347       .  A
N432        C433   1.343       .  A
C433        C434   1.381       .  A
C433        H436   1.082       .  S
C434        C435   1.383       .  A
C434        C458   1.466       .  S
C435        H437   1.081       .  S
N438        N439   1.322       .  A
N438        C442   1.345       .  A
N439        C440   1.345       .  A
C440        C441   1.383       .  A
C440        H443   1.082       .  S
C441        C442   1.383       .  A
C442        H444   1.082       .  S
O445       Cu949   2.014   1_455  S
O445        C455   1.278       .  A
O446        C456   1.276       .  A
O447       Cu453   2.014       .  S
O447        C457   1.278       .  A
O448       Cu701   2.000   1_456  S
O448        C458   1.276       .  A
O449       Cu950   2.017   1_455  S
O449        C458   1.278       .  A
O450       Cu454   2.003   1_554  S
O451       Cu454   2.017       .  S
O451        C456   1.278       .  A
O452       Cu950   2.003   1_454  S
Cu453       O941   2.014       .  S
Cu453       O696   2.000       .  S
Cu454       O945   2.017       .  S
Cu454       O948   2.003   1_556  S
C455        C476   1.466       .  S
O459       Cu467   2.014       .  S
O459        C469   1.278       .  A
O460       Cu467   2.000       .  S
O460        C470   1.276       .  A
O461       Cu467   2.015       .  S
O461        C471   1.278       .  A
O462       Cu467   2.001       .  S
O462        C472   1.277       .  A
O463       Cu468   2.017       .  S
O463        C472   1.278       .  A
O464       Cu468   2.003       .  S
O464        C471   1.277       .  A
O465       Cu468   2.017       .  S
O465        C470   1.278       .  A
O466       Cu468   2.003       .  S
O466        C469   1.277       .  A
Cu467      Cu468   2.378       .  S
C472        C486   1.466       .  S
N473        N474   1.323       .  A
N473        C477   1.344       .  A
N473       Cu481   2.072       .  S
N474        C475   1.346       .  A
N474       Cu480   2.076       .  S
C475        C476   1.382       .  A
C475        H478   1.081       .  S
C476        C477   1.381       .  A
C477        H479   1.082       .  S
Cu480       N483   2.076       .  S
Cu481       N491   2.071       .  S
Cu482       N484   2.070       .  S
Cu482       N490   2.070       .  S
N483        N484   1.323       .  A
N483        C487   1.347       .  A
N484        C485   1.343       .  A
C485        C486   1.381       .  A
C485        H488   1.082       .  S
C486        C487   1.383       .  A
C487        H489   1.081       .  S
N490        N491   1.322       .  A
N490        C494   1.344       .  A
N491        C492   1.345       .  A
C492        C493   1.383       .  A
C492        H495   1.082       .  S
C493        C494   1.383       .  A
C494        H496   1.082       .  S
N497        N498   1.323       .  A
N497        C501   1.343       .  A
N497       Cu505   2.070       .  S
N498        C499   1.347       .  A
N498       Cu504   2.076       .  S
C499        C500   1.383       .  A
C499        H502   1.081       .  S
C500        C501   1.381       .  A
C500        C531   1.467       .  S
C501        H503   1.082       .  S
Cu504       N507   2.076       .  S
Cu505       N515   2.070       .  S
Cu506       N508   2.072       .  S
Cu506       N514   2.072       .  S
N507        N508   1.323       .  A
N507        C511   1.346       .  A
N508        C509   1.344       .  A
C509        C510   1.381       .  A
C509        H512   1.082       .  S
C510        C511   1.382       .  A
C510        C596   1.466       .  S
C511        H513   1.081       .  S
N514        N515   1.322       .  A
N514        C518   1.345       .  A
N515        C516   1.345       .  A
C516        C517   1.383       .  A
C516        H519   1.082       .  S
C517        C518   1.383       .  A
C517        C665   1.470       .  S
C518        H520   1.082       .  S
O521       Cu529   2.018   1_545  S
O521        C531   1.278       .  A
O522        C532   1.277       .  A
O523        C533   1.278       .  A
O524       Cu777   2.003       .  S
O524        C534   1.277       .  A
O525       Cu530   2.014       .  S
O525        C534   1.278   1_545  A
O526        C533   1.276       .  A
O527        C532   1.278   1_545  A
O528       Cu778   2.001   1_554  S
O528        C531   1.277       .  A
Cu529       O772   2.003   1_554  S
Cu529      Cu778   2.378   1_564  S
Cu530       O776   2.001       .  S
Cu530      Cu777   2.378   1_545  S
C532        C610   1.466       .  S
C533        C548   1.466       .  S
C534        C572   1.466       .  S
N535        N536   1.323       .  A
N535        C539   1.344       .  A
N535       Cu543   2.072       .  S
N536        C537   1.346       .  A
N536       Cu542   2.076       .  S
C537        C538   1.382       .  A
C537        H540   1.081       .  S
C538        C539   1.381       .  A
C538        C594   1.466       .  S
C539        H541   1.082       .  S
Cu542       N545   2.076       .  S
Cu543       N553   2.072       .  S
Cu544       N546   2.070       .  S
Cu544       N552   2.070       .  S
N545        N546   1.323       .  A
N545        C549   1.347       .  A
N546        C547   1.343       .  A
C547        C548   1.381       .  A
C547        H550   1.082       .  S
C548        C549   1.383       .  A
C549        H551   1.081       .  S
N552        N553   1.322       .  A
N552        C556   1.345       .  A
N553        C554   1.345       .  A
C554        C555   1.383       .  A
C554        H557   1.082       .  S
C555        C556   1.383       .  A
C555        C741   1.470       .  S
C556        H558   1.082       .  S
N559        N560   1.323       .  A
N559        C563   1.343       .  A
N559       Cu567   2.071       .  S
N560        C561   1.347       .  A
N560       Cu566   2.076       .  S
C561        C562   1.383       .  A
C561        H564   1.081   1_565  S
C562        C563   1.381       .  A
C562        C593   1.466       .  S
C563        H565   1.082       .  S
Cu566       N569   2.076       .  S
Cu567       N577   2.070       .  S
Cu568       N570   2.072       .  S
Cu568       N576   2.071       .  S
N569        N570   1.323       .  A
N569        C573   1.346       .  A
N570        C571   1.344       .  A
C571        C572   1.381       .  A
C571        H574   1.082       .  S
C572        C573   1.382       .  A
C573        H575   1.081       .  S
N576        N577   1.322       .  A
N576        C580   1.345       .  A
N577        C578   1.345       .  A
C578        C579   1.383       .  A
C578        H581   1.082       .  S
C579        C580   1.383       .  A
C579        C641   1.470       .  S
C580        H582   1.082       .  S
O583       Cu591   2.018       .  S
O583        C593   1.278   1_545  A
O584       Cu591   2.004       .  S
O584        C594   1.277       .  A
O585       Cu591   2.017       .  S
O585        C595   1.278   1_545  A
O586       Cu591   2.003       .  S
O586        C596   1.277       .  A
O587       Cu592   2.014   1_545  S
O587        C596   1.278       .  A
O588       Cu592   2.000       .  S
O588        C595   1.276       .  A
O589       Cu592   2.014   1_545  S
O589        C594   1.278       .  A
O590       Cu592   2.000       .  S
O590        C593   1.276       .  A
Cu591      Cu592   2.378   1_545  S
C595        C600   1.466       .  S
N597        N598   1.323       .  A
N597        C601   1.343       .  A
N597       Cu605   2.070       .  S
N598        C599   1.347       .  A
N598       Cu604   2.076       .  S
C599        C600   1.383       .  A
C599        H602   1.081   1_565  S
C600        C601   1.381       .  A
C601        H603   1.082       .  S
Cu604       N607   2.076       .  S
Cu605       N615   2.070       .  S
Cu606       N608   2.072       .  S
Cu606       N614   2.071       .  S
N607        N608   1.323       .  A
N607        C611   1.346       .  A
N608        C609   1.344       .  A
C609        C610   1.381       .  A
C609        H612   1.082       .  S
C610        C611   1.383       .  A
C611        H613   1.081       .  S
N614        N615   1.322       .  A
N614        C618   1.345       .  A
N615        C616   1.345       .  A
C616        C617   1.383       .  A
C616        H619   1.082       .  S
C617        C618   1.383       .  A
C617        C689   1.470       .  S
C618        H620   1.082       .  S
N621        N622   1.323       .  A
N621        C625   1.343       .  A
N621       Cu629   2.070       .  S
N622        C623   1.347       .  A
N622       Cu628   2.076       .  S
C623        C624   1.383       .  A
C623        H626   1.081       .  S
C624        C625   1.381       .  A
C624        C704   1.466       .  S
C625        H627   1.082       .  S
Cu628       N631   2.076       .  S
Cu629       N639   2.070       .  S
Cu630       N632   2.072       .  S
Cu630       N638   2.072       .  S
N631        N632   1.323       .  A
N631        C635   1.346       .  A
N632        C633   1.344       .  A
C633        C634   1.381       .  A
C633        H636   1.082       .  S
C634        C635   1.382       .  A
C634        C719   1.466       .  S
C635        H637   1.081       .  S
N638        N639   1.322       .  A
N638        C642   1.345       .  A
N639        C640   1.345       .  A
C640        C641   1.383       .  A
C640        H643   1.082       .  S
C641        C642   1.383       .  A
C642        H644   1.082       .  S
N645        N646   1.323       .  A
N645        C649   1.344       .  A
N645       Cu653   2.073       .  S
N646        C647   1.346       .  A
N646       Cu652   2.076       .  S
C647        C648   1.382       .  A
C647        H650   1.081       .  S
C648        C649   1.381       .  A
C648        C705   1.466       .  S
C649        H651   1.082       .  S
Cu652       N655   2.076       .  S
Cu653       N663   2.072       .  S
Cu654       N656   2.070       .  S
Cu654       N662   2.069       .  S
N655        N656   1.323       .  A
N655        C659   1.347       .  A
N656        C657   1.343       .  A
C657        C658   1.381       .  A
C657        H660   1.082       .  S
C658        C659   1.383       .  A
C658        C718   1.466       .  S
C659        H661   1.081       .  S
N662        N663   1.322       .  A
N662        C666   1.344       .  A
N663        C664   1.345       .  A
C664        C665   1.383       .  A
C664        H667   1.082       .  S
C665        C666   1.383       .  A
C666        H668   1.082       .  S
N669        N670   1.323       .  A
N669        C673   1.344       .  A
N669       Cu677   2.071       .  S
N670        C671   1.346       .  A
N670       Cu676   2.076       .  S
C671        C672   1.382       .  A
C671        H674   1.081       .  S
C672        C673   1.381       .  A
C672        C717   1.466       .  S
C673        H675   1.082       .  S
Cu676       N679   2.076       .  S
Cu677       N687   2.071       .  S
Cu678       N680   2.071       .  S
Cu678       N686   2.070       .  S
N679        N680   1.323       .  A
N679        C683   1.347       .  A
N680        C681   1.343       .  A
C681        C682   1.381       .  A
C681        H684   1.082       .  S
C682        C683   1.383       .  A
C682        C706   1.466       .  S
C683        H685   1.081       .  S
N686        N687   1.322       .  A
N686        C690   1.345       .  A
N687        C688   1.345       .  A
C688        C689   1.383       .  A
C688        H691   1.082       .  S
C689        C690   1.383       .  A
C690        H692   1.082       .  S
O693        C703   1.278       .  A
O694       Cu949   2.000       .  S
O694        C704   1.276       .  A
O695       Cu701   2.014       .  S
O695        C705   1.278       .  A
O696        C706   1.276       .  A
O697        C706   1.278       .  A
O698       Cu702   2.003       .  S
O698        C953   1.277       .  A
O699       Cu702   2.017       .  S
O699        C704   1.278       .  A
O700        C951   1.277       .  A
Cu701       O942   2.000   1_554  S
Cu701      Cu950   2.378   1_554  S
Cu702      Cu949   2.378       .  S
C703        C724   1.466       .  S
C703        O948   1.277       .  A
C705        O946   1.277       .  A
O707       Cu715   2.014       .  S
O707        C717   1.278       .  A
O708       Cu715   2.000       .  S
O708        C718   1.276       .  A
O709       Cu715   2.015       .  S
O709        C719   1.278       .  A
O710       Cu715   2.001       .  S
O710        C720   1.277       .  A
O711       Cu716   2.017       .  S
O711        C720   1.278       .  A
O712       Cu716   2.003       .  S
O712        C719   1.277       .  A
O713       Cu716   2.017       .  S
O713        C718   1.278       .  A
O714       Cu716   2.003       .  S
O714        C717   1.277       .  A
Cu715      Cu716   2.378       .  S
C720        C734   1.466       .  S
N721        N722   1.323       .  A
N721        C725   1.344       .  A
N721       Cu729   2.072       .  S
N722        C723   1.346       .  A
N722       Cu728   2.076       .  S
C723        C724   1.382       .  A
C723        H726   1.081       .  S
C724        C725   1.381       .  A
C725        H727   1.082       .  S
Cu728       N731   2.076       .  S
Cu729       N739   2.071       .  S
Cu730       N732   2.070       .  S
Cu730       N738   2.070       .  S
N731        N732   1.323       .  A
N731        C735   1.347       .  A
N732        C733   1.343       .  A
C733        C734   1.381       .  A
C733        H736   1.082       .  S
C734        C735   1.383       .  A
C735        H737   1.081       .  S
N738        N739   1.322       .  A
N738        C742   1.344       .  A
N739        C740   1.345       .  A
C740        C741   1.383       .  A
C740        H743   1.082       .  S
C741        C742   1.383       .  A
C742        H744   1.082       .  S
N745        N746   1.323       .  A
N745        C749   1.343       .  A
N745       Cu753   2.070       .  S
N746        C747   1.347       .  A
N746       Cu752   2.076       .  S
C747        C748   1.383       .  A
C747        H750   1.081       .  S
C748        C749   1.381       .  A
C748        C779   1.467       .  S
C749        H751   1.082       .  S
Cu752       N755   2.076       .  S
Cu753       N763   2.070       .  S
Cu754       N756   2.072       .  S
Cu754       N762   2.072       .  S
N755        N756   1.323       .  A
N755        C759   1.346       .  A
N756        C757   1.344       .  A
C757        C758   1.381       .  A
C757        H760   1.082       .  S
C758        C759   1.382       .  A
C758        C844   1.466       .  S
C759        H761   1.081       .  S
N762        N763   1.322       .  A
N762        C766   1.345       .  A
N763        C764   1.345       .  A
C764        C765   1.383       .  A
C764        H767   1.082       .  S
C765        C766   1.383       .  A
C765        C913   1.470       .  S
C766        H768   1.082       .  S
O769       Cu777   2.018   1_545  S
O769        C779   1.278       .  A
O770        C780   1.277       .  A
O771        C781   1.278       .  A
O772        C782   1.277       .  A
O773       Cu778   2.014       .  S
O773        C782   1.278   1_545  A
O774        C781   1.276       .  A
O775        C780   1.278   1_545  A
O776        C779   1.277       .  A
C780        C858   1.466       .  S
C781        C796   1.466       .  S
C782        C820   1.466       .  S
N783        N784   1.323       .  A
N783        C787   1.344       .  A
N783       Cu791   2.072       .  S
N784        C785   1.346       .  A
N784       Cu790   2.076       .  S
C785        C786   1.382       .  A
C785        H788   1.081       .  S
C786        C787   1.381       .  A
C786        C842   1.466       .  S
C787        H789   1.082       .  S
Cu790       N793   2.076       .  S
Cu791       N801   2.072       .  S
Cu792       N794   2.070       .  S
Cu792       N800   2.070       .  S
N793        N794   1.323       .  A
N793        C797   1.347       .  A
N794        C795   1.343       .  A
C795        C796   1.381       .  A
C795        H798   1.082       .  S
C796        C797   1.383       .  A
C797        H799   1.081       .  S
N800        N801   1.322       .  A
N800        C804   1.345       .  A
N801        C802   1.345       .  A
C802        C803   1.383       .  A
C802        H805   1.082       .  S
C803        C804   1.383       .  A
C803        C989   1.470       .  S
C804        H806   1.082       .  S
N807        N808   1.323       .  A
N807        C811   1.343       .  A
N807       Cu815   2.071       .  S
N808        C809   1.347       .  A
N808       Cu814   2.076       .  S
C809        C810   1.383       .  A
C809        H812   1.081   1_565  S
C810        C811   1.381       .  A
C810        C841   1.466       .  S
C811        H813   1.082       .  S
Cu814       N817   2.076       .  S
Cu815       N825   2.070       .  S
Cu816       N818   2.072       .  S
Cu816       N824   2.071       .  S
N817        N818   1.323       .  A
N817        C821   1.346       .  A
N818        C819   1.344       .  A
C819        C820   1.381       .  A
C819        H822   1.082       .  S
C820        C821   1.382       .  A
C821        H823   1.081       .  S
N824        N825   1.322       .  A
N824        C828   1.345       .  A
N825        C826   1.345       .  A
C826        C827   1.383       .  A
C826        H829   1.082       .  S
C827        C828   1.383       .  A
C827        C889   1.470       .  S
C828        H830   1.082       .  S
O831       Cu839   2.018       .  S
O831        C841   1.278   1_545  A
O832       Cu839   2.004       .  S
O832        C842   1.277       .  A
O833       Cu839   2.017       .  S
O833        C843   1.278   1_545  A
O834       Cu839   2.003       .  S
O834        C844   1.277       .  A
O835       Cu840   2.014   1_545  S
O835        C844   1.278       .  A
O836       Cu840   2.000       .  S
O836        C843   1.276       .  A
O837       Cu840   2.014   1_545  S
O837        C842   1.278       .  A
O838       Cu840   2.000       .  S
O838        C841   1.276       .  A
Cu839      Cu840   2.378   1_545  S
C843        C848   1.466       .  S
N845        N846   1.323       .  A
N845        C849   1.343       .  A
N845       Cu853   2.070       .  S
N846        C847   1.347       .  A
N846       Cu852   2.076       .  S
C847        C848   1.383       .  A
C847        H850   1.081   1_565  S
C848        C849   1.381       .  A
C849        H851   1.082       .  S
Cu852       N855   2.076       .  S
Cu853       N863   2.070       .  S
Cu854       N856   2.072       .  S
Cu854       N862   2.071       .  S
N855        N856   1.323       .  A
N855        C859   1.346       .  A
N856        C857   1.344       .  A
C857        C858   1.381       .  A
C857        H860   1.082       .  S
C858        C859   1.383       .  A
C859        H861   1.081       .  S
N862        N863   1.322       .  A
N862        C866   1.345       .  A
N863        C864   1.345       .  A
C864        C865   1.383       .  A
C864        H867   1.082       .  S
C865        C866   1.383       .  A
C865        C937   1.470       .  S
C866        H868   1.082       .  S
N869        N870   1.323       .  A
N869        C873   1.343       .  A
N869       Cu877   2.070       .  S
N870        C871   1.347       .  A
N870       Cu876   2.076       .  S
C871        C872   1.383       .  A
C871        H874   1.081       .  S
C872        C873   1.381       .  A
C872        C952   1.466       .  S
C873        H875   1.082       .  S
Cu876       N879   2.076       .  S
Cu877       N887   2.070       .  S
Cu878       N880   2.072       .  S
Cu878       N886   2.072       .  S
N879        N880   1.323       .  A
N879        C883   1.346       .  A
N880        C881   1.344       .  A
C881        C882   1.381       .  A
C881        H884   1.082       .  S
C882        C883   1.382       .  A
C882        C967   1.466       .  S
C883        H885   1.081       .  S
N886        N887   1.322       .  A
N886        C890   1.345       .  A
N887        C888   1.345       .  A
C888        C889   1.383       .  A
C888        H891   1.082       .  S
C889        C890   1.383       .  A
C890        H892   1.082       .  S
N893        N894   1.323       .  A
N893        C897   1.344       .  A
N893       Cu901   2.073       .  S
N894        C895   1.346       .  A
N894       Cu900   2.076       .  S
C895        C896   1.382       .  A
C895        H898   1.081       .  S
C896        C897   1.381       .  A
C896        C953   1.466       .  S
C897        H899   1.082       .  S
Cu900       N903   2.076       .  S
Cu901       N911   2.072       .  S
Cu902       N904   2.070       .  S
Cu902       N910   2.069       .  S
N903        N904   1.323       .  A
N903        C907   1.347       .  A
N904        C905   1.343       .  A
C905        C906   1.381       .  A
C905        H908   1.082       .  S
C906        C907   1.383       .  A
C906        C966   1.466       .  S
C907        H909   1.081       .  S
N910        N911   1.322       .  A
N910        C914   1.344       .  A
N911        C912   1.345       .  A
C912        C913   1.383       .  A
C912        H915   1.082       .  S
C913        C914   1.383       .  A
C914        H916   1.082       .  S
N917        N918   1.323       .  A
N917        C921   1.344       .  A
N917       Cu925   2.071       .  S
N918        C919   1.346       .  A
N918       Cu924   2.076       .  S
C919        C920   1.382       .  A
C919        H922   1.081       .  S
C920        C921   1.381       .  A
C920        C965   1.466       .  S
C921        H923   1.082       .  S
Cu924       N927   2.076       .  S
Cu925       N935   2.071       .  S
Cu926       N928   2.071       .  S
Cu926       N934   2.070       .  S
N927        N928   1.323       .  A
N927        C931   1.347       .  A
N928        C929   1.343       .  A
C929        C930   1.381       .  A
C929        H932   1.082       .  S
C930        C931   1.383       .  A
C930        C954   1.466       .  S
C931        H933   1.081       .  S
N934        N935   1.322       .  A
N934        C938   1.345       .  A
N935        C936   1.345       .  A
C936        C937   1.383       .  A
C936        H939   1.082       .  S
C937        C938   1.383       .  A
C938        H940   1.082       .  S
O941        C951   1.278       .  A
O942        C952   1.276       .  A
O943       Cu949   2.014       .  S
O943        C953   1.278       .  A
O944        C954   1.276       .  A
O945        C954   1.278       .  A
O946       Cu950   2.003   1_554  S
O947       Cu950   2.017       .  S
O947        C952   1.278       .  A
C951        C972   1.466       .  S
O955       Cu963   2.014       .  S
O955        C965   1.278       .  A
O956       Cu963   2.000       .  S
O956        C966   1.276       .  A
O957       Cu963   2.015       .  S
O957        C967   1.278       .  A
O958       Cu963   2.001       .  S
O958        C968   1.277       .  A
O959       Cu964   2.017       .  S
O959        C968   1.278       .  A
O960       Cu964   2.003       .  S
O960        C967   1.277       .  A
O961       Cu964   2.017       .  S
O961        C966   1.278       .  A
O962       Cu964   2.003       .  S
O962        C965   1.277       .  A
Cu963      Cu964   2.378       .  S
C968        C982   1.466       .  S
N969        N970   1.323       .  A
N969        C973   1.344       .  A
N969       Cu977   2.072       .  S
N970        C971   1.346       .  A
N970       Cu976   2.076       .  S
C971        C972   1.382       .  A
C971        H974   1.081       .  S
C972        C973   1.381       .  A
C973        H975   1.082       .  S
Cu976       N979   2.076       .  S
Cu977       N987   2.071       .  S
Cu978       N980   2.070       .  S
Cu978       N986   2.070       .  S
N979        N980   1.323       .  A
N979        C983   1.347       .  A
N980        C981   1.343       .  A
C981        C982   1.381       .  A
C981        H984   1.082       .  S
C982        C983   1.383       .  A
C983        H985   1.081       .  S
N986        N987   1.322       .  A
N986        C990   1.344       .  A
N987        C988   1.345       .  A
C988        C989   1.383       .  A
C988        H991   1.082       .  S
C989        C990   1.383       .  A
C990        H992   1.082       .  S
