geometry optimzed in LAMMPS
_audit_creation_date              2020-11-30 
_audit_creation_method            'lammps2cif' 
_symmetry_space_group_name_H-M    'P1' 
_symmetry_Int_Tables_number       1 
_symmetry_cell_setting            triclinic 
loop_ 
_symmetry_equiv_pos_as_xyz 
  x,y,z 
_cell_length_a                    51.1117133 
_cell_length_b                    51.03011255246179 
_cell_length_c                    51.083945546668005 
_cell_angle_alpha                 89.91736566660377 
_cell_angle_beta                  90.12292913681885 
_cell_angle_gamma                 90.10105535886503 
loop_ 
_atom_site_label 
_atom_site_type_symbol 
_atom_site_fract_x 
_atom_site_fract_y 
_atom_site_fract_z 
_atom_site_charge 
Zr1        Zr  0.46294216  0.76124023  0.74576456     2.17500
O2          O  0.48062162  0.71668885  0.74699644    -0.51000
O3          O  0.47950180  0.75566414  0.70089359    -0.74200
O4          O  0.43118342  0.72737559  0.73730735    -0.81000
O5          O  0.50322789  0.77554169  0.79815465    -0.82800
O6          O  0.39590440  0.75021129  0.72369794    -0.78400
O7          O  0.50594802  0.75246676  0.76192303    -0.90000
O8          O  0.47672872  0.79397972  0.67883792    -0.76000
O9          O  0.43371117  0.78466352  0.71864650    -0.85500
O10         O  0.48605403  0.80066863  0.73608603    -0.85200
O11         O  0.42541512  0.76806282  0.77431520    -0.71900
O12         O  0.46782824  0.78359926  0.78725775    -0.84100
Zr13       Zr  0.42556728  0.85499636  0.77323065     2.26400
Zr14       Zr  0.39636396  0.79171758  0.74606250     2.06300
Zr15       Zr  0.49334008  0.82143024  0.77816421     2.10000
Zr16       Zr  0.45595087  0.82417015  0.70861987     1.78800
O17         O  0.51397266  0.83898027  0.81740533    -0.92900
O18         O  0.42816104  0.82037204  0.66991187    -0.40700
O19         O  0.46390282  0.84376382  0.74979177    -0.77300
O20         O  0.41642683  0.83224784  0.73292379    -0.96000
O21         O  0.40248110  0.81650068  0.78540227    -0.89300
O22         O  0.45467096  0.83325699  0.80291248    -0.92100
C23         C  0.48310201  0.76979052  0.68035488     1.01600
C24         C  0.50743286  0.75308058  0.78652812     1.14500
C25         C  0.41003826  0.72951099  0.72432986     1.05300
O26         O  0.36835218  0.79663760  0.70777098    -0.94300
O27         O  0.36072743  0.82131605  0.75369591    -0.90000
O28         O  0.37915595  0.86047014  0.76351048    -0.83200
C29         C  0.35923218  0.84577183  0.75890666     1.12000
O30         O  0.43477822  0.76162787  0.84868602    -0.96300
Zr31       Zr  0.43096154  0.79426980  0.81393316     1.88900
O32         O  0.41229077  0.86647081  0.81735926    -0.72900
O33         O  0.36476592  0.76338243  0.76798826    -0.52200
O34         O  0.39349519  0.76594230  0.82253097    -0.96900
O35         O  0.46398216  0.79675245  0.84836455    -0.54100
O36         O  0.40540880  0.82780042  0.83807311    -0.73400
C37         C  0.40253682  0.85285627  0.83605443     0.98900
O38         O  0.41553178  0.90128864  0.76688578    -0.62300
O39         O  0.53875335  0.81924528  0.76405686    -0.57100
O40         O  0.45842620  0.88826908  0.76316898    -0.93700
O41         O  0.49898863  0.86998727  0.76487825    -0.92200
O42         O  0.49526173  0.84816350  0.69610556    -0.92500
O43         O  0.44600502  0.86778701  0.69183167    -0.91300
C44         C  0.48339972  0.88995106  0.76029175     1.17800
H45         H  0.50237846  0.79716846  0.72726054     0.33700
H46         H  0.40447466  0.84227059  0.72218307     0.44500
H47         H  0.45889040  0.84384602  0.81798722     0.38100
H48         H  0.41773993  0.75138666  0.77897888     0.34600
H49         H  0.43941799  0.82565177  0.65505583     0.26300
H50         H  0.35294258  0.77543121  0.77743981     0.32300
H51         H  0.37914675  0.77811259  0.82706895     0.38200
H52         H  0.50869678  0.83454923  0.69312602     0.32600
H53         H  0.54139958  0.80074828  0.75889396     0.31500
H54         H  0.52440108  0.82422413  0.82444211     0.33200
H55         H  0.45986752  0.81303520  0.85802408     0.32200
H56         H  0.45352787  0.86846141  0.67399808     0.36200
H57         H  0.40565285  0.90225665  0.75021296     0.28900
H58         H  0.46753833  0.70518755  0.75539555     0.33100
H59         H  0.42415797  0.76842448  0.86339624     0.36000
H60         H  0.53913257  0.82913653  0.74737065     0.28600
H61         H  0.40260875  0.90565944  0.78060230     0.41500
H62         H  0.38063827  0.79773025  0.69285183     0.31500
H63         H  0.42545147  0.80131143  0.66745047     0.39100
H64         H  0.48059371  0.80061848  0.83923025     0.31000
H65         H  0.35382239  0.75607420  0.75373126     0.31100
H66         H  0.48134711  0.71074157  0.72858010     0.31300
Zr67       Zr  0.47819883  0.01394259  0.79943207     2.17500
O68         O  0.49372073  0.96893728  0.79699377    -0.51000
O69         O  0.43300142  0.00495065  0.78815643    -0.74200
O70         O  0.46357740  0.98604003  0.83354622    -0.81000
O71         O  0.51177771  0.02058887  0.74230506    -0.82800
O72         O  0.48255665  0.00230621  0.86990450    -0.78400
O73         O  0.47395828  0.00385104  0.75472083    -0.90000
O74         O  0.41101779  0.04323608  0.79260205    -0.76000
O75         O  0.45583261  0.03952692  0.83052957    -0.85500
O76         O  0.46490038  0.05123265  0.77453787    -0.85200
O77         O  0.51195922  0.02225669  0.83114222    -0.71900
O78         O  0.51830065  0.03191528  0.78194790    -0.84100
Zr79       Zr  0.51401701  0.10682693  0.82192650     2.26400
Zr80       Zr  0.48892191  0.04907495  0.86189657     2.06300
Zr81       Zr  0.50474369  0.06915562  0.75691374     2.10000
Zr82       Zr  0.44291814  0.07707903  0.80636661     1.78800
O83         O  0.54276942  0.07751572  0.72950407    -0.92900
O84         O  0.40938596  0.07823387  0.84026847    -0.40700
O85         O  0.48256954  0.09512748  0.78898954    -0.77300
O86         O  0.47443242  0.08836837  0.84019788    -0.96000
O87         O  0.52709875  0.06875173  0.84423887    -0.89300
O88         O  0.53668334  0.08173439  0.78949085    -0.92100
C89         C  0.41205778  0.01866882  0.78665728     1.01600
C90         C  0.49560691  0.00064912  0.74363188     1.14500
C91         C  0.46986641  0.98441805  0.85759250     1.05300
O92         O  0.45133550  0.06722039  0.88483572    -0.94300
O93         O  0.52236290  0.07172028  0.88637074    -0.90000
O94         O  0.52341044  0.11228250  0.86870126    -0.83200
C95         C  0.52900923  0.09588352  0.88704823     1.12000
O96         O  0.57054731  0.00253484  0.80200403    -0.96300
Zr97       Zr  0.55053061  0.04413945  0.81385564     1.88900
O98         O  0.56088027  0.11549419  0.82513968    -0.72900
O99         O  0.48968263  0.03812569  0.90847517    -0.52200
O100        O  0.57501967  0.02239572  0.84858889    -0.96900
O101        O  0.58346613  0.05354523  0.78068166    -0.54100
O102        O  0.57658984  0.07650854  0.83862037    -0.73400
C103        C  0.57764878  0.10172318  0.83785851     0.98900
O104        O  0.50731721  0.15225067  0.83462690    -0.62300
O105        O  0.48193698  0.07013298  0.71504172    -0.57100
O106        O  0.50465653  0.14021550  0.78950018    -0.93700
O107        O  0.49906208  0.11928006  0.75045650    -0.92200
O108        O  0.41748198  0.09476277  0.77008456    -0.92500
O109        O  0.43215704  0.12350688  0.81019335    -0.91300
C110        C  0.49936129  0.14066898  0.76493040     1.17800
H111        H  0.45296797  0.04692097  0.76049006     0.33700
H112        H  0.46696896  0.10074661  0.85236566     0.44500
H113        H  0.55096382  0.09148583  0.78183001     0.38100
H114        H  0.51773602  0.00599648  0.83883256     0.34600
H115        H  0.40916729  0.06037071  0.84784789     0.26300
H116        H  0.47367047  0.02774150  0.91195599     0.32300
H117        H  0.56155682  0.01395244  0.85967968     0.38200
H118        H  0.43043991  0.10405572  0.75905702     0.32600
H119        H  0.47325137  0.05282450  0.71375944     0.31500
H120        H  0.54008015  0.06621304  0.71398657     0.33200
H121        H  0.57743898  0.04396963  0.76493192     0.32200
H122        H  0.41594437  0.12443991  0.82069582     0.36200
H123        H  0.49539740  0.15127726  0.84984506     0.28900
H124        H  0.47803701  0.95750665  0.79692316     0.33100
H125        H  0.55888380  0.98903191  0.80962509     0.36000
H126        H  0.46744352  0.08269492  0.71766924     0.28600
H127        H  0.52431071  0.15803648  0.84199694     0.41500
H128        H  0.43913646  0.05227367  0.88694021     0.31500
H129        H  0.41664414  0.08949857  0.85427531     0.39100
H130        H  0.59932263  0.04405748  0.78651795     0.31000
H131        H  0.50426559  0.02555672  0.91064607     0.31100
H132        H  0.50299128  0.96509575  0.81359799     0.31300
Zr133      Zr  0.55182610  0.27577652  0.75558157     2.17500
O134        O  0.55572787  0.22825859  0.75866925    -0.51000
O135        O  0.53962241  0.26249450  0.80007089    -0.74200
O136        O  0.59606854  0.25959974  0.75393825    -0.81000
O137        O  0.48449302  0.27370480  0.74498739    -0.82800
O138        O  0.62671360  0.28909721  0.75999340    -0.78400
O139        O  0.52016461  0.25670712  0.72733763    -0.90000
O140        O  0.53931287  0.29899634  0.82529698    -0.76000
O141        O  0.57686368  0.30849813  0.77729595    -0.85500
O142        O  0.52010797  0.30466102  0.77476547    -0.85200
O143        O  0.57905613  0.29488474  0.72189681    -0.71900
O144        O  0.52638948  0.29444064  0.72035903    -0.84100
Zr145      Zr  0.54970645  0.37571330  0.72671615     2.26400
Zr146      Zr  0.60412768  0.32788302  0.74416385     2.06300
Zr147      Zr  0.49530880  0.32367701  0.73965607     2.10000
Zr148      Zr  0.54589420  0.33700552  0.79628737     1.78800
O149        O  0.46616508  0.32456390  0.70191095    -0.92900
O150        O  0.57835746  0.34310805  0.83077800    -0.40700
O151        O  0.52317313  0.35518200  0.75987415    -0.77300
O152        O  0.57404798  0.35832277  0.76440547    -0.96000
O153        O  0.57925351  0.34495429  0.70885702    -0.89300
O154        O  0.52183976  0.34413221  0.70556818    -0.92100
C155        C  0.53653646  0.27407647  0.82220999     1.01600
C156        C  0.49769262  0.25312650  0.73695817     1.14500
C157        C  0.61328840  0.26987351  0.76865166     1.05300
O158        O  0.63661989  0.34879292  0.77226438    -0.94300
O159        O  0.61057759  0.36736477  0.71887063    -0.90000
O160        O  0.58897535  0.39947705  0.73751274    -0.83200
C161        C  0.61058310  0.38927451  0.73061638     1.12000
O162        O  0.53672391  0.27381655  0.66743094    -0.96300
Zr163      Zr  0.55302880  0.31410350  0.68716529     1.88900
O164        O  0.56429129  0.38636349  0.68152331    -0.72900
O165        O  0.64143361  0.31597236  0.71718545    -0.52200
O166        O  0.58636202  0.28990201  0.66331925    -0.96900
O167        O  0.52561457  0.32534343  0.64965175    -0.54100
O168        O  0.57798928  0.34809255  0.66411154    -0.73400
C169        C  0.57784253  0.37329277  0.66474828     0.98900
O170        O  0.53802003  0.42089841  0.71600181    -0.62300
O171        O  0.45383349  0.32239554  0.76298923    -0.57100
O172        O  0.51319617  0.40004708  0.74360105    -0.93700
O173        O  0.48097738  0.37064361  0.75341146    -0.92200
O174        O  0.50300905  0.34768562  0.81408853    -0.92500
O175        O  0.54528275  0.37923302  0.81857701    -0.91300
C176        C  0.49056575  0.39467417  0.75278458     1.17800
H177        H  0.50782888  0.29612392  0.78626369     0.33700
H178        H  0.58340185  0.37165715  0.77391028     0.44500
H179        H  0.51108769  0.35259882  0.69245709     0.38100
H180        H  0.59056174  0.28220912  0.71393648     0.34600
H181        H  0.57856358  0.32649440  0.84076911     0.26300
H182        H  0.63523365  0.31850545  0.69898379     0.32300
H183        H  0.58213236  0.29287118  0.64462331     0.38200
H184        H  0.49635198  0.33105380  0.82154704     0.32600
H185        H  0.44182822  0.31263899  0.75128661     0.31500
H186        H  0.45410609  0.33929646  0.70546733     0.33200
H187        H  0.52675200  0.34464388  0.64798499     0.32200
H188        H  0.53939564  0.37555680  0.83668227     0.36200
H189        H  0.55472447  0.42978412  0.71176375     0.28900
H190        H  0.53920095  0.22197613  0.76654825     0.33100
H191        H  0.51778861  0.27351229  0.67148879     0.36000
H192        H  0.45695281  0.31038296  0.77790466     0.28600
H193        H  0.52857646  0.41996819  0.69906394     0.41500
H194        H  0.62652127  0.35758567  0.78621035     0.31500
H195        H  0.59535311  0.34364397  0.82159765     0.39100
H196        H  0.50744586  0.32189657  0.65540723     0.31000
H197        H  0.65428487  0.33023761  0.72000022     0.31100
H198        H  0.55538813  0.22178117  0.74041368     0.31300
Zr199      Zr  0.51245547  0.53127515  0.72434518     2.17500
O200        O  0.49986820  0.48637710  0.71386188    -0.51000
O201        O  0.55706756  0.52167180  0.73987151    -0.74200
O202        O  0.53399859  0.51627274  0.68542225    -0.81000
O203        O  0.46965183  0.52391496  0.77844986    -0.82800
O204        O  0.52633773  0.54573423  0.65313316    -0.78400
O205        O  0.50563267  0.50462617  0.76195608    -0.90000
O206        O  0.57456397  0.56069988  0.75186310    -0.76000
O207        O  0.53598820  0.56614892  0.70489997    -0.85500
O208        O  0.51967006  0.56063501  0.75996995    -0.85200
O209        O  0.48319383  0.54752812  0.69090471    -0.71900
O210        O  0.46980973  0.54427422  0.73982677    -0.84100
Zr211      Zr  0.47235213  0.62649239  0.72040258     2.26400
Zr212      Zr  0.50697668  0.58371978  0.67259662     2.06300
Zr213      Zr  0.47726279  0.57420559  0.77501420     2.10000
Zr214      Zr  0.54352823  0.59537887  0.73988135     1.78800
O215        O  0.43547281  0.57741060  0.79753362    -0.92900
O216        O  0.58268385  0.60176417  0.71344859    -0.40700
O217        O  0.50053042  0.60760763  0.75291052    -0.77300
O218        O  0.51646134  0.61489413  0.70619364    -0.96000
O219        O  0.46496935  0.59538040  0.68728129    -0.89300
O220        O  0.44861581  0.59222742  0.74182838    -0.92100
C221        C  0.57565512  0.53556577  0.74980536     1.01600
C222        C  0.48349200  0.50291484  0.77300114     1.14500
C223        C  0.53631800  0.52448709  0.66189336     1.05300
O224        O  0.54499566  0.60346726  0.65185939    -0.94300
O225        O  0.48577249  0.62354753  0.65726343    -0.90000
O226        O  0.49052500  0.65493693  0.68748830    -0.83200
C227        C  0.49143140  0.64704944  0.66382033     1.12000
O228        O  0.41800145  0.52173427  0.71942947    -0.96300
Zr229      Zr  0.44094101  0.56171653  0.70705654     1.88900
O230        O  0.43524724  0.63323648  0.68960889    -0.72900
O231        O  0.49213995  0.57573251  0.62796247    -0.52200
O232        O  0.42852544  0.53343371  0.67071763    -0.96900
O233        O  0.39871284  0.57335668  0.72605229    -0.54100
O234        O  0.41980079  0.59336118  0.67735168    -0.73400
C235        C  0.42041990  0.61852318  0.67530614     0.98900
O236        O  0.44463637  0.66147257  0.73679353    -0.62300
O237        O  0.49427416  0.56544339  0.81870093    -0.57100
O238        O  0.47997396  0.65185352  0.75912795    -0.93700
O239        O  0.48516150  0.62188124  0.79206681    -0.92200
O240        O  0.55561826  0.60704369  0.78448725    -0.92500
O241        O  0.55869326  0.64044382  0.74431700    -0.91300
C242        C  0.48500338  0.64619791  0.78302062     1.17800
H243        H  0.52927853  0.55251740  0.77409444     0.33700
H244        H  0.52648463  0.62925509  0.69914553     0.44500
H245        H  0.43277094  0.59917737  0.74939104     0.38100
H246        H  0.48064021  0.53421668  0.67771619     0.34600
H247        H  0.57926939  0.61771982  0.70294173     0.26300
H248        H  0.47313525  0.57945882  0.62831461     0.32300
H249        H  0.41218218  0.54119077  0.66375577     0.38200
H250        H  0.54200597  0.59880496  0.79555338     0.32600
H251        H  0.48933122  0.58102930  0.82908331     0.31500
H252        H  0.42468985  0.56329529  0.78970402     0.33200
H253        H  0.39788176  0.56417958  0.74311918     0.32200
H254        H  0.54368849  0.65131607  0.73862446     0.36200
H255        H  0.44303068  0.67370255  0.72190336     0.28900
H256        H  0.51644873  0.47640157  0.71305925     0.33100
H257        H  0.41908779  0.52122144  0.73878172     0.36000
H258        H  0.48300523  0.55121504  0.82555930     0.28600
H259        H  0.42704602  0.65350840  0.73855432     0.41500
H260        H  0.56004564  0.59730376  0.66239206     0.31500
H261        H  0.59643811  0.60704446  0.72607731     0.39100
H262        H  0.38554441  0.56441548  0.71495927     0.31000
H263        H  0.49976709  0.59021417  0.61752574     0.31100
H264        H  0.49336057  0.48688087  0.69559852     0.31300
Zr265      Zr  0.97876269  0.27289126  0.00660765     2.17500
O266        O  0.02319508  0.28741433  0.99699317    -0.51000
O267        O  0.98637943  0.25241274  0.04939716    -0.74200
O268        O  0.99642577  0.30238163  0.03868272    -0.81000
O269        O  0.98097282  0.22920095  0.95385715    -0.82800
O270        O  0.96136736  0.32794091  0.04754941    -0.78400
O271        O  0.00152362  0.23483211  0.99229879    -0.90000
O272        O  0.94657142  0.24472050  0.06736353    -0.76000
O273        O  0.94477563  0.28928992  0.03278379    -0.85500
O274        O  0.94666774  0.23885564  0.00827655    -0.85200
O275        O  0.96522679  0.31222505  0.98397402    -0.71900
O276        O  0.96363579  0.26707221  0.96222076    -0.84100
Zr277      Zr  0.88244167  0.29148634  0.97008593     2.26400
Zr278      Zr  0.93116247  0.32824192  0.01141381     2.06300
Zr279      Zr  0.93093516  0.23353380  0.96401769     2.10000
Zr280      Zr  0.91291923  0.25652342  0.03538369     1.78800
O281        O  0.92298007  0.21746348  0.91985316    -0.92900
O282        O  0.89743456  0.27950586  0.07417195    -0.40700
O283        O  0.89903742  0.25327508  0.99140625    -0.77300
O284        O  0.89633186  0.29640449  0.01516404    -0.96000
O285        O  0.91600289  0.32313812  0.96770285    -0.89300
O286        O  0.91468677  0.27254566  0.94172682    -0.92100
C287        C  0.97169492  0.24485777  0.06842329     1.01600
C288        C  0.00254673  0.22968662  0.96805211     1.14500
C289        C  0.98350763  0.31777314  0.05345100     1.05300
O290        O  0.91168426  0.35215535  0.04772810    -0.94300
O291        O  0.89688599  0.35645687  0.99639894    -0.90000
O292        O  0.86256398  0.32909268  0.99099571    -0.83200
C293        C  0.87245362  0.35190591  0.99422174     1.12000
O294        O  0.96618700  0.34937281  0.93319882    -0.96300
Zr295      Zr  0.94819237  0.30565722  0.93999283     1.88900
O296        O  0.87626397  0.32089143  0.93246076    -0.72900
O297        O  0.95755921  0.36716625  0.00286485    -0.52200
O298        O  0.99268234  0.30838872  0.92312893    -0.96900
O299        O  0.95066364  0.28413665  0.89744436    -0.54100
O300        O  0.91589202  0.33441006  0.91804147    -0.73400
C301        C  0.89075211  0.33642637  0.91886206     0.98900
O302        O  0.83484445  0.28972264  0.96652938    -0.62300
O303        O  0.93610294  0.18677523  0.97202007    -0.57100
O304        O  0.85677765  0.25276142  0.95943534    -0.93700
O305        O  0.88265941  0.22057879  0.97515426    -0.92200
O306        O  0.90355119  0.20972917  0.03333142    -0.92500
O307        O  0.87269773  0.24161668  0.05626781    -0.91300
C308        C  0.85922647  0.23057471  0.97084536     1.17800
H309        H  0.95376467  0.22273688  0.01525886     0.33700
H310        H  0.88239693  0.30307663  0.02596090     0.44500
H311        H  0.90723707  0.26860126  0.92480033     0.38100
H312        H  0.97960297  0.32447971  0.98351330     0.34600
H313        H  0.90715894  0.27162974  0.08899835     0.26300
H314        H  0.94468541  0.38141272  0.00026390     0.32300
H315        H  0.99106547  0.31419848  0.90469104     0.38200
H316        H  0.91685530  0.20153346  0.04482089     0.32600
H317        H  0.93031166  0.18427378  0.99034036     0.31500
H318        H  0.94009461  0.21044206  0.91416619     0.33200
H319        H  0.93300844  0.28588869  0.88964659     0.32200
H320        H  0.87828654  0.23140525  0.07181167     0.36200
H321        H  0.82817797  0.29261984  0.98448024     0.28900
H322        H  0.03467655  0.27210167  0.00001456     0.33100
H323        H  0.95531082  0.36095881  0.94424631     0.36000
H324        H  0.92218229  0.17843444  0.96138650     0.28600
H325        H  0.82980995  0.30570937  0.95673640     0.41500
H326        H  0.89330820  0.34605628  0.04857934     0.31500
H327        H  0.90470539  0.29741708  0.07252991     0.39100
H328        H  0.95250011  0.26524550  0.90150285     0.31000
H329        H  0.96606781  0.37136096  0.01977819     0.31100
H330        H  0.02344420  0.29034154  0.97785610     0.31300
Zr331      Zr  0.72911472  0.26335903  0.96239168     2.17500
O332        O  0.77659168  0.26371338  0.95782271    -0.51000
O333        O  0.73352506  0.30702818  0.98240928    -0.74200
O334        O  0.75301954  0.28063974  0.92620401    -0.81000
O335        O  0.73013091  0.20990070  0.00233130    -0.82800
O336        O  0.71990187  0.29904698  0.90414316    -0.78400
O337        O  0.74729904  0.24957333  0.00297839    -0.90000
O338        O  0.69256660  0.32183633  0.99033916    -0.76000
O339        O  0.69747337  0.28962105  0.94130718    -0.85500
O340        O  0.69404060  0.26623089  0.99286998    -0.85200
O341        O  0.71862786  0.23764563  0.92387001    -0.71900
O342        O  0.71455946  0.21845502  0.96784702    -0.84100
Zr343      Zr  0.63418588  0.22509449  0.93746238     2.26400
Zr344      Zr  0.68722188  0.26498142  0.90298906     2.06300
Zr345      Zr  0.68012785  0.22144568  0.99910126     2.10000
Zr346      Zr  0.66185450  0.29187940  0.97022278     1.78800
O347        O  0.67122613  0.17927401  0.01958109    -0.92900
O348        O  0.65560985  0.33077733  0.94312267    -0.40700
O349        O  0.64964762  0.24751036  0.97524902    -0.77300
O350        O  0.64922893  0.26950798  0.93046786    -0.96000
O351        O  0.66991981  0.22166253  0.90799971    -0.89300
O352        O  0.66468933  0.19766956  0.96071952    -0.92100
C353        C  0.71749349  0.32404297  0.99173369     1.01600
C354        C  0.75078507  0.22518485  0.00438169     1.14500
C355        C  0.74329955  0.29923350  0.91298509     1.05300
O356        O  0.67959614  0.30058948  0.87209930    -0.94300
O357        O  0.64977719  0.26283484  0.87597678    -0.90000
O358        O  0.61696009  0.23972754  0.89485103    -0.83200
C359        C  0.62678736  0.25322441  0.87604474     1.12000
O360        O  0.72029986  0.18232501  0.88868340    -0.96300
Zr361      Zr  0.69994725  0.19428574  0.93015463     1.88900
O362        O  0.62783021  0.18075865  0.92042408    -0.72900
O363        O  0.71153479  0.24721602  0.86608618    -0.52200
O364        O  0.74280346  0.17370269  0.92787091    -0.96900
O365        O  0.69902224  0.15538123  0.95790395    -0.54100
O366        O  0.66742900  0.16936654  0.90454792    -0.73400
C367        C  0.64244025  0.16667069  0.90570479     0.98900
O368        O  0.58646612  0.22363987  0.93543019    -0.62300
O369        O  0.68726617  0.23248339  0.04494679    -0.57100
O370        O  0.60599995  0.22612376  0.97586136    -0.93700
O371        O  0.63203890  0.23209271  0.01170325    -0.92200
O372        O  0.64080719  0.29408476  0.01294231    -0.92500
O373        O  0.62015021  0.31487299  0.97192916    -0.91300
C374        C  0.60898435  0.23234744  0.00006861     1.17800
H375        H  0.69937717  0.27406885  0.00923413     0.33700
H376        H  0.63582639  0.27976703  0.92197236     0.44500
H377        H  0.65696246  0.18099470  0.96524906     0.38100
H378        H  0.73410762  0.23593364  0.91318398     0.34600
H379        H  0.67196586  0.34099845  0.94500637     0.26300
H380        H  0.73008793  0.25164664  0.86953504     0.32300
H381        H  0.75504219  0.18821928  0.92377821     0.38200
H382        H  0.65015075  0.28108199  0.02386182     0.32600
H383        H  0.70544849  0.23918247  0.04565595     0.31500
H384        H  0.68876476  0.17181276  0.02306935     0.33200
H385        H  0.71319782  0.15814375  0.97085578     0.32200
H386        H  0.62325398  0.33068623  0.98274111     0.36200
H387        H  0.58088660  0.24174837  0.93122428     0.28900
H388        H  0.78393106  0.26789655  0.97524882     0.33100
H389        H  0.71314898  0.16486850  0.88411680     0.36000
H390        H  0.67625451  0.24810661  0.04803501     0.28600
H391        H  0.58215593  0.21336071  0.91956526     0.41500
H392        H  0.68775185  0.29479676  0.85552614     0.31500
H393        H  0.65591282  0.32437070  0.92484492     0.39100
H394        H  0.70530033  0.14095359  0.94662205     0.31000
H395        H  0.71045523  0.22797468  0.86814144     0.31100
H396        H  0.78162427  0.24539081  0.95419675     0.31300
Zr397      Zr  0.49257881  0.20142956  0.97652434     2.17500
O398        O  0.53927853  0.20136584  0.98536880    -0.51000
O399        O  0.50269233  0.21643803  0.93251681    -0.74200
O400        O  0.52449106  0.16879663  0.96773897    -0.81000
O401        O  0.48032769  0.25396944  0.01808935    -0.82800
O402        O  0.50483634  0.13004767  0.97635662    -0.78400
O403        O  0.50223447  0.24666032  0.98166758    -0.90000
O404        O  0.46590667  0.21178976  0.90817404    -0.76000
O405        O  0.46926688  0.17035796  0.95145561    -0.85500
O406        O  0.45545921  0.22562193  0.96214836    -0.85200
O407        O  0.48308633  0.16766776  0.00803518    -0.71900
O408        O  0.47129193  0.21515212  0.01632409    -0.84100
Zr409      Zr  0.39734944  0.17382632  0.00560494     2.26400
Zr410      Zr  0.45819066  0.13710660  0.98251314     2.06300
Zr411      Zr  0.43422758  0.23993428  0.00186270     2.10000
Zr412      Zr  0.43186332  0.19379939  0.93735556     1.78800
O413        O  0.41922512  0.26695597  0.03807362    -0.92900
O414        O  0.43655767  0.16081161  0.90322504    -0.40700
O415        O  0.41091948  0.20807378  0.97667659    -0.77300
O416        O  0.41927197  0.15822297  0.96654149    -0.96000
O417        O  0.43517242  0.15185631  0.01994424    -0.89300
O418        O  0.42070261  0.20541446  0.03143265    -0.92100
C419        C  0.49001017  0.21878098  0.91098101     1.01600
C420        C  0.50225505  0.25473301  0.00495036     1.14500
C421        C  0.52457547  0.14389002  0.96924618     1.05300
O422        O  0.44643194  0.11480249  0.94201759    -0.94300
O423        O  0.43210076  0.10879122  0.01008731    -0.90000
O424        O  0.39176200  0.12674603  0.01237892    -0.83200
C425        C  0.40803861  0.10809984  0.01696418     1.12000
O426        O  0.49746108  0.18771917  0.07250032    -0.96300
Zr427      Zr  0.45841890  0.18131282  0.04592125     1.88900
O428        O  0.38578456  0.16654700  0.05182779    -0.72900
O429        O  0.47205590  0.09209438  0.99084759    -0.52200
O430        O  0.47929544  0.14168618  0.06244320    -0.96900
O431        O  0.45525960  0.21386835  0.08056804    -0.54100
O432        O  0.42476953  0.15842782  0.07142319    -0.73400
C433        C  0.39965409  0.15704918  0.07071865     0.98900
O434        O  0.35342603  0.16107696  0.99181786    -0.62300
O435        O  0.43622581  0.28186551  0.97908490    -0.57100
O436        O  0.36444500  0.20674608  0.99486256    -0.93700
O437        O  0.38552006  0.24585033  0.98995492    -0.92200
O438        O  0.41082539  0.23073450  0.91571372    -0.92500
O439        O  0.38886739  0.18613001  0.91823112    -0.91300
C440        C  0.36440283  0.23117285  0.98849362     1.17800
H441        H  0.46022596  0.24048281  0.95148422     0.33700
H442        H  0.40816201  0.14590625  0.95748977     0.44500
H443        H  0.41034406  0.21205993  0.04575944     0.38100
H444        H  0.49915866  0.15995083  0.01431910     0.34600
H445        H  0.43289176  0.17030883  0.88670627     0.26300
H446        H  0.48136263  0.08620004  0.97493482     0.32300
H447        H  0.47359746  0.12765815  0.05031785     0.38200
H448        H  0.40607203  0.24274012  0.93014500     0.32600
H449        H  0.45445765  0.28328817  0.97272760     0.31500
H450        H  0.40641571  0.27912534  0.03008141     0.33200
H451        H  0.43777863  0.21105637  0.08840011     0.32200
H452        H  0.37704394  0.18454066  0.93348085     0.36200
H453        H  0.35608882  0.15015814  0.97603914     0.28900
H454        H  0.54555061  0.21927859  0.98156350     0.33100
H455        H  0.51202320  0.18115429  0.06157113     0.36000
H456        H  0.42561413  0.27921328  0.96306073     0.28600
H457        H  0.34696922  0.14875771  0.00534067     0.41500
H458        H  0.43429140  0.10069574  0.94750982     0.31500
H459        H  0.45553629  0.15701609  0.90248506     0.39100
H460        H  0.45384864  0.23084427  0.07126482     0.31000
H461        H  0.48565323  0.09319736  0.00465388     0.31100
H462        H  0.54080898  0.19878676  0.00448840     0.31300
Zr463      Zr  0.13231305  0.27895075  0.02982864     2.17500
O464        O  0.09100280  0.29603190  0.01304426    -0.51000
O465        O  0.12311752  0.32265028  0.04909484    -0.74200
O466        O  0.10655034  0.26936229  0.06763689    -0.81000
O467        O  0.13550965  0.24930682  0.96293521    -0.82800
O468        O  0.13758072  0.28573593  0.09362432    -0.78400
O469        O  0.10658103  0.26146591  0.99460259    -0.90000
O470        O  0.16243840  0.34035988  0.05929583    -0.76000
O471        O  0.16549336  0.29282702  0.05520737    -0.85500
O472        O  0.16408155  0.29794373  0.00079548    -0.85200
O473        O  0.14671258  0.24158568  0.05633803    -0.71900
O474        O  0.15100924  0.24343058  0.00533303    -0.84100
Zr475      Zr  0.22835531  0.24712606  0.03552619     2.26400
Zr476      Zr  0.17793488  0.26215551  0.08519577     2.06300
Zr477      Zr  0.18336037  0.26134040  0.97688344     2.10000
Zr478      Zr  0.19411966  0.31666260  0.03188748     1.78800
O479        O  0.18749589  0.22987383  0.94134024    -0.92900
O480        O  0.21994526  0.34662519  0.05861716    -0.40700
O481        O  0.21327762  0.28162138  0.00711407    -0.77300
O482        O  0.21168197  0.28312256  0.06047394    -0.96000
O483        O  0.19607126  0.22660629  0.06133398    -0.89300
O484        O  0.19990905  0.22733089  0.00423366    -0.92100
C485        C  0.13735570  0.33934762  0.06164149     1.01600
C486        C  0.11149896  0.25119835  0.97236612     1.14500
C487        C  0.11490929  0.27571911  0.09025115     1.05300
O488        O  0.19377402  0.28994817  0.12058994    -0.94300
O489        O  0.21353400  0.23620157  0.10415237    -0.90000
O490        O  0.24791443  0.23661885  0.07640076    -0.83200
C491        C  0.23702321  0.22982276  0.09770434     1.12000
O492        O  0.12409700  0.18724137  0.03301990    -0.96300
Zr493      Zr  0.16715633  0.20755798  0.03066855     1.88900
O494        O  0.24126863  0.20135533  0.02850696    -0.72900
O495        O  0.15658991  0.23773225  0.12018184    -0.52200
O496        O  0.16417011  0.17685121  0.06705595    -0.96900
O497        O  0.15591332  0.18373905  0.99087049    -0.54100
O498        O  0.20400689  0.17718864  0.02614442    -0.73400
C499        C  0.22907554  0.17948928  0.02513931     0.98900
O500        O  0.26939810  0.26949322  0.04566634    -0.62300
O501        O  0.18199373  0.29318117  0.94140575    -0.57100
O502        O  0.25719686  0.24461098  0.00078088    -0.93700
O503        O  0.23364504  0.25995506  0.96606300    -0.92200
O504        O  0.18098930  0.35024924  0.00052912    -0.92500
O505        O  0.23646248  0.33218295  0.01652488    -0.91300
C506        C  0.25582306  0.25292580  0.97756933     1.17800
H507        H  0.15591198  0.31046929  0.98922089     0.33700
H508        H  0.22502963  0.29021016  0.07187521     0.44500
H509        H  0.20875026  0.21487573  0.99315108     0.38100
H510        H  0.13331798  0.23290163  0.06624776     0.34600
H511        H  0.21279943  0.36421493  0.05461486     0.26300
H512        H  0.16146381  0.21923974  0.11703938     0.32300
H513        H  0.15389453  0.18621055  0.08051454     0.38200
H514        H  0.16560156  0.35880957  0.00853788     0.32600
H515        H  0.16313543  0.29537758  0.93754081     0.31500
H516        H  0.17511157  0.23607701  0.92776076     0.33200
H517        H  0.17237086  0.18306725  0.98070619     0.32200
H518        H  0.23599826  0.32953497  0.99733474     0.36200
H519        H  0.26990265  0.28480061  0.03375739     0.28900
H520        H  0.09497338  0.31395968  0.00674307     0.33100
H521        H  0.11174614  0.20214975  0.03366735     0.36000
H522        H  0.18738076  0.30993603  0.94955562     0.28600
H523        H  0.28371284  0.25790145  0.03971380     0.41500
H524        H  0.19802122  0.30685830  0.11208545     0.31500
H525        H  0.21443990  0.34307637  0.07684403     0.39100
H526        H  0.14460080  0.19585668  0.98081219     0.31000
H527        H  0.16628431  0.24264304  0.13625144     0.31100
H528        H  0.07984790  0.29858750  0.02865906     0.31300
Zr529      Zr  0.77869269  0.46060518  0.87761019     2.17500
O530        O  0.77219506  0.46066358  0.92490649    -0.51000
O531        O  0.82284345  0.44205630  0.88375815    -0.74200
O532        O  0.77410960  0.41882200  0.89844018    -0.81000
O533        O  0.75739826  0.52838717  0.87368100    -0.82800
O534        O  0.77912538  0.39439323  0.86244532    -0.78400
O535        O  0.78388871  0.50326499  0.89838239    -0.90000
O536        O  0.83282696  0.42442544  0.84446064    -0.76000
O537        O  0.78657812  0.42886540  0.84509020    -0.85500
O538        O  0.80012807  0.48387371  0.84283332    -0.85200
O539        O  0.73618711  0.44222726  0.86662581    -0.71900
O540        O  0.74749960  0.49104943  0.86066944    -0.84100
Zr541      Zr  0.73372652  0.46327248  0.78354841     2.26400
Zr542      Zr  0.74565548  0.41044751  0.83317644     2.06300
Zr543      Zr  0.76801820  0.51461580  0.82600397     2.10000
Zr544      Zr  0.80841108  0.45007817  0.81131203     1.78800
O545        O  0.74753067  0.55633288  0.81528925    -0.92900
O546        O  0.82347226  0.41043690  0.78955102    -0.40700
O547        O  0.77634925  0.48052363  0.79522665    -0.77300
O548        O  0.76679844  0.43181606  0.79692871    -0.96000
O549        O  0.71351000  0.44168069  0.81908828    -0.89300
O550        O  0.72582962  0.49702303  0.81475106    -0.92100
C551        C  0.83552502  0.42547212  0.86955996     1.01600
C552        C  0.76704882  0.52175333  0.89661741     1.14500
C553        C  0.77803573  0.39685218  0.88724480     1.05300
O554        O  0.75752721  0.37002537  0.81086342    -0.94300
O555        O  0.71056072  0.39848546  0.80371252    -0.90000
O556        O  0.72559453  0.41931335  0.76853517    -0.83200
C557        C  0.70841517  0.40537046  0.77975636     1.12000
O558        O  0.69181317  0.47745573  0.89589739    -0.96300
Zr559      Zr  0.70548439  0.47437753  0.85038456     1.88900
O560        O  0.68726769  0.47597218  0.77830976    -0.72900
O561        O  0.72065398  0.38312039  0.86328091    -0.52200
O562        O  0.67139238  0.44225748  0.85955911    -0.96900
O563        O  0.69014776  0.51735343  0.86405105    -0.54100
O564        O  0.67186292  0.48596534  0.81860173    -0.73400
C565        C  0.66941486  0.48506948  0.79360479     0.98900
O566        O  0.73295896  0.45968052  0.73588425    -0.62300
O567        O  0.80570109  0.54300300  0.83303648    -0.57100
O568        O  0.73999882  0.50110104  0.75739558    -0.93700
O569        O  0.77666519  0.51689805  0.77563759    -0.92200
O570        O  0.84861658  0.47563245  0.81505700    -0.92500
O571        O  0.82799580  0.45764512  0.76857002    -0.91300
C572        C  0.76240572  0.51124868  0.75489083     1.17800
H573        H  0.81573077  0.49244168  0.84903885     0.33700
H574        H  0.77040607  0.41932897  0.78321640     0.44500
H575        H  0.71494365  0.51075191  0.80766663     0.38100
H576        H  0.72870095  0.43362870  0.88170117     0.34600
H577        H  0.84258531  0.41005317  0.79277502     0.26300
H578        H  0.70284265  0.38240066  0.85566438     0.32300
H579        H  0.65475623  0.45184787  0.85701358     0.38200
H580        H  0.84411511  0.49325738  0.80829790     0.32600
H581        H  0.81260503  0.54642814  0.81526763     0.31500
H582        H  0.75993295  0.56495946  0.80314415     0.33200
H583        H  0.67111240  0.51732031  0.86045328     0.32200
H584        H  0.82664478  0.47679739  0.76576528     0.36200
H585        H  0.74490005  0.44513597  0.73132858     0.28900
H586        H  0.78819489  0.46860962  0.93245894     0.33100
H587        H  0.70826404  0.47600968  0.90606625     0.36000
H588        H  0.79817209  0.55994117  0.83867391     0.28600
H589        H  0.71521608  0.45325501  0.73138206     0.41500
H590        H  0.76824729  0.36018073  0.82368708     0.31500
H591        H  0.81645790  0.39591246  0.80035296     0.39100
H592        H  0.69758680  0.52972048  0.85109201     0.31000
H593        H  0.72771832  0.36523564  0.86083166     0.31100
H594        H  0.75790549  0.47324099  0.92845681     0.31300
Zr595      Zr  0.73199414  0.54369658  0.37703441     2.17500
O596        O  0.70821151  0.53592709  0.41761758    -0.51000
O597        O  0.69626282  0.57537755  0.38289721    -0.74200
O598        O  0.75358022  0.57522799  0.40447503    -0.81000
O599        O  0.73165699  0.47043990  0.37381897    -0.82800
O600        O  0.77463835  0.60043480  0.37444476    -0.78400
O601        O  0.73187794  0.50427971  0.40295701    -0.90000
O602        O  0.68430045  0.58973303  0.34275619    -0.76000
O603        O  0.73301349  0.57737875  0.34513021    -0.85500
O604        O  0.70457016  0.52699848  0.34294247    -0.85200
O605        O  0.77800598  0.54808483  0.36594789    -0.71900
O606        O  0.75221644  0.50537507  0.35979342    -0.84100
Zr607      Zr  0.77346157  0.52575616  0.28309120     2.26400
Zr608      Zr  0.77763111  0.58059303  0.33175182     2.06300
Zr609      Zr  0.72600447  0.48829057  0.32592905     2.10000
Zr610      Zr  0.70667800  0.56122510  0.31086305     1.78800
O611        O  0.73224176  0.44244174  0.31453987    -0.92900
O612        O  0.70702382  0.60539816  0.29254292    -0.40700
O613        O  0.73080507  0.52425985  0.29932230    -0.77300
O614        O  0.75135224  0.56612441  0.29538649    -0.96000
O615        O  0.79866208  0.54097581  0.31872839    -0.89300
O616        O  0.77189895  0.49101495  0.31440260    -0.92100
C617        C  0.68309934  0.59069685  0.36789005     1.01600
C618        C  0.73298762  0.47974480  0.39798023     1.14500
C619        C  0.76652513  0.59549856  0.39765972     1.05300
O620        O  0.76516565  0.61938139  0.30689539    -0.94300
O621        O  0.81641709  0.57538208  0.30527982    -0.90000
O622        O  0.79844880  0.56256840  0.26763793    -0.83200
C623        C  0.81811738  0.57023374  0.28084340     1.12000
O624        O  0.80692949  0.50200611  0.39666739    -0.96300
Zr625      Zr  0.79750714  0.50783476  0.35028987     1.88900
O626        O  0.81715940  0.50455777  0.27989553    -0.72900
O627        O  0.80932098  0.61440344  0.34369861    -0.52200
O628        O  0.83883169  0.52814220  0.36288955    -0.96900
O629        O  0.80084092  0.46111167  0.35961983    -0.54100
O630        O  0.83245952  0.49544824  0.32044695    -0.73400
C631        C  0.83525449  0.49619525  0.29550564     0.98900
O632        O  0.78033572  0.53404247  0.23635406    -0.62300
O633        O  0.68145766  0.47204258  0.33112969    -0.57100
O634        O  0.75319669  0.49208153  0.25708481    -0.93700
O635        O  0.71421075  0.49111479  0.27653880    -0.92200
O636        O  0.66130073  0.54639526  0.31307450    -0.92500
O637        O  0.68308474  0.56092721  0.26929158    -0.91300
C638        C  0.72845676  0.49184393  0.25521637     1.17800
H639        H  0.68711023  0.52361926  0.34932608     0.33700
H640        H  0.75188280  0.57841839  0.28104156     0.44500
H641        H  0.77861181  0.47475683  0.30746089     0.38100
H642        H  0.78871691  0.55337754  0.38057640     0.34600
H643        H  0.68844880  0.61086982  0.29223889     0.26300
H644        H  0.81720957  0.62054557  0.32709684     0.32300
H645        H  0.83539012  0.54722621  0.36237012     0.38200
H646        H  0.66132803  0.52854378  0.30555394     0.32600
H647        H  0.67671706  0.47632478  0.34941286     0.31500
H648        H  0.73834287  0.43414424  0.33098340     0.33200
H649        H  0.81549924  0.45481580  0.34868371     0.32200
H650        H  0.66905440  0.57419073  0.27089839     0.36200
H651        H  0.76769047  0.52380481  0.22598629     0.28900
H652        H  0.70929008  0.55272478  0.42717999     0.33100
H653        H  0.82341646  0.49185745  0.39734076     0.36000
H654        H  0.67056680  0.48383621  0.32026108     0.28600
H655        H  0.79737834  0.52571939  0.23240321     0.41500
H656        H  0.77954020  0.62193113  0.29417381     0.31500
H657        H  0.71483066  0.61632740  0.30652560     0.39100
H658        H  0.78503011  0.45320841  0.35163853     0.31000
H659        H  0.82360101  0.60487046  0.35272132     0.31100
H660        H  0.68956468  0.53428812  0.41252354     0.31300
Zr661      Zr  0.69077267  0.48886198  0.61208399     2.17500
O662        O  0.68466375  0.48722215  0.65943285    -0.51000
O663        O  0.67069061  0.44601660  0.61947382    -0.74200
O664        O  0.64693267  0.50484867  0.62036700    -0.81000
O665        O  0.76441115  0.48844157  0.62322526    -0.82800
O666        O  0.62791170  0.50581127  0.58045275    -0.78400
O667        O  0.72564496  0.49489119  0.64419425    -0.90000
O668        O  0.65567015  0.43487828  0.57944124    -0.76000
O669        O  0.66498794  0.48254290  0.57389670    -0.85500
O670        O  0.71520415  0.45786659  0.58690647    -0.85200
O671        O  0.68455773  0.53195962  0.59320417    -0.71900
O672        O  0.73094057  0.50923817  0.60026244    -0.84100
Zr673      Zr  0.72515524  0.51849703  0.51826359     2.26400
Zr674      Zr  0.66114338  0.52436448  0.55311881     2.06300
Zr675      Zr  0.75512927  0.47960166  0.57393748     2.10000
Zr676      Zr  0.68860597  0.45284931  0.54855440     1.78800
O677        O  0.80138525  0.48939479  0.56804676    -0.92900
O678        O  0.65009255  0.44370859  0.52177910    -0.40700
O679        O  0.72504804  0.47881106  0.54090063    -0.77300
O680        O  0.68453891  0.49460903  0.52585294    -0.96000
O681        O  0.70084136  0.54756798  0.54464297    -0.89300
O682        O  0.75185234  0.52370397  0.55629454    -0.92100
C683        C  0.65492012  0.43327473  0.60462010     1.01600
C684        C  0.75079182  0.49403066  0.64438582     1.14500
C685        C  0.62678454  0.50433499  0.60536611     1.05300
O686        O  0.61954674  0.52079163  0.52999621    -0.94300
O687        O  0.65912131  0.54309731  0.50954375    -0.90000
O688        O  0.69343455  0.52924500  0.48531302    -0.83200
C689        C  0.67225927  0.54198294  0.48819615     1.12000
O690        O  0.71877628  0.56660761  0.62826811    -0.96300
Zr691      Zr  0.72594987  0.55227425  0.58345046     1.88900
O692        O  0.74529220  0.56231247  0.51470639    -0.72900
O693        O  0.64424368  0.56611962  0.56884970    -0.52200
O694        O  0.70283818  0.59398484  0.58511625    -0.96900
O695        O  0.76863364  0.56244066  0.60232012    -0.54100
O696        O  0.74354380  0.58370552  0.55339698    -0.73400
C697        C  0.74916133  0.58256276  0.52914231     0.98900
O698        O  0.73318427  0.52347006  0.47101280    -0.62300
O699        O  0.77308170  0.43748096  0.58734414    -0.57100
O700        O  0.76461275  0.49687774  0.50565026    -0.93700
O701        O  0.75817276  0.46015341  0.52700059    -0.92200
O702        O  0.71078322  0.41177229  0.55870124    -0.92500
O703        O  0.69680661  0.42407579  0.51128001    -0.91300
C704        C  0.76188592  0.47237911  0.50478095     1.17800
H705        H  0.71833202  0.44187528  0.59653325     0.33700
H706        H  0.67464889  0.49180189  0.50996898     0.44500
H707        H  0.76878591  0.53105428  0.55205319     0.38100
H708        H  0.67468947  0.54311194  0.60480558     0.34600
H709        H  0.64286786  0.42712792  0.52885110     0.26300
H710        H  0.64442373  0.57769294  0.55327367     0.32300
H711        H  0.71575392  0.60676200  0.59195830     0.38200
H712        H  0.69655568  0.39958903  0.56377671     0.32600
H713        H  0.78168836  0.43059961  0.57143693     0.31500
H714        H  0.80403736  0.50631603  0.57714322     0.33200
H715        H  0.78102607  0.56174663  0.58747072     0.32200
H716        H  0.68630884  0.40802020  0.51430464     0.36200
H717        H  0.73897591  0.54185458  0.46867871     0.28900
H718        H  0.67132674  0.47348617  0.66253455     0.33100
H719        H  0.73119043  0.58122417  0.63121958     0.36000
H720        H  0.78771843  0.44200741  0.59925148     0.28600
H721        H  0.74864192  0.51331254  0.46555269     0.41500
H722        H  0.61115373  0.53815676  0.53190991     0.31500
H723        H  0.63724195  0.45721010  0.52701128     0.39100
H724        H  0.77304085  0.54693868  0.61312661     0.31000
H725        H  0.62545874  0.56287272  0.57230026     0.31100
H726        H  0.67581298  0.50383397  0.66401539     0.31300
Zr727      Zr  0.77560270  0.48467370  0.03149259     2.17500
O728        O  0.77867625  0.48523204  0.98390032    -0.51000
O729        O  0.75916688  0.44038030  0.02517997    -0.74200
O730        O  0.81403587  0.46250942  0.01525710    -0.81000
O731        O  0.73425840  0.53891051  0.02661072    -0.82800
O732        O  0.83093764  0.44664613  0.05262530    -0.78400
O733        O  0.73887229  0.50020411  0.00706413    -0.90000
O734        O  0.74855995  0.42427197  0.06500976    -0.76000
O735        O  0.79253915  0.45937511  0.06628842    -0.85500
O736        O  0.74047373  0.48182718  0.06231811    -0.85200
O737        O  0.81371847  0.50954948  0.04409108    -0.71900
O738        O  0.76942882  0.52619965  0.04881131    -0.84100
Zr739      Zr  0.78811564  0.52570347  0.12624268     2.26400
Zr740      Zr  0.82944169  0.48441744  0.08067954     2.06300
Zr741      Zr  0.73378548  0.52655752  0.07594942     2.10000
Zr742      Zr  0.75926882  0.45754935  0.09777303     1.78800
O743        O  0.71550595  0.56974264  0.08446206    -0.92900
O744        O  0.78605933  0.41985274  0.11017752    -0.40700
O745        O  0.75531776  0.50168814  0.10639528    -0.77300
O746        O  0.79682341  0.48058900  0.11464677    -0.96000
O747        O  0.82199324  0.52821364  0.09479421    -0.89300
O748        O  0.76990561  0.55223243  0.09234636    -0.92100
C749        C  0.75063741  0.42206264  0.04005097     1.01600
C750        C  0.73596966  0.52475430  0.00526420     1.14500
C751        C  0.82619131  0.44494205  0.02813201     1.05300
O752        O  0.86525679  0.45509636  0.09241544    -0.94300
O753        O  0.84914140  0.48748904  0.12296712    -0.90000
O754        O  0.82380850  0.50948282  0.15201360    -0.83200
C755        C  0.84418243  0.49675988  0.14561659     1.12000
O756        O  0.79837697  0.57934509  0.02064394    -0.96300
Zr757      Zr  0.80416349  0.55306124  0.06019266     1.88900
O758        O  0.81407005  0.56617816  0.13123027    -0.72900
O759        O  0.86623954  0.50547684  0.05874340    -0.52200
O760        O  0.84456551  0.55613205  0.03498472    -0.96900
O761        O  0.78881268  0.59822592  0.06418058    -0.54100
O762        O  0.83468759  0.57113399  0.09250522    -0.73400
C763        C  0.83259174  0.57575543  0.11710731     0.98900
O764        O  0.78098744  0.52893125  0.17341238    -0.62300
O765        O  0.68793582  0.51871530  0.06555373    -0.57100
O766        O  0.74828321  0.53907302  0.14741687    -0.93700
O767        O  0.71899576  0.51683498  0.12355553    -0.92200
O768        O  0.71317084  0.45082817  0.10772710    -0.92500
O769        O  0.75227400  0.43960015  0.14145348    -0.91300
C770        C  0.72775926  0.52495733  0.14631649     1.17800
H771        H  0.72490875  0.47383254  0.05514388     0.33700
H772        H  0.80303603  0.47048199  0.12943371     0.44500
H773        H  0.76479573  0.56902001  0.09895863     0.38100
H774        H  0.82605193  0.51002101  0.02984934     0.34600
H775        H  0.77847062  0.40465838  0.10080476     0.26300
H776        H  0.87967106  0.50760649  0.07257923     0.32300
H777        H  0.85614129  0.56779202  0.04530241     0.38200
H778        H  0.70466956  0.46765593  0.10325325     0.32600
H779        H  0.68815155  0.51089409  0.04783249     0.31500
H780        H  0.71062727  0.56927002  0.10320878     0.33200
H781        H  0.79207305  0.60327908  0.08261301     0.32200
H782        H  0.74330937  0.42257457  0.13876649     0.36200
H783        H  0.78340283  0.51102063  0.18050766     0.28900
H784        H  0.77735626  0.46656089  0.97880539     0.33100
H785        H  0.81293142  0.59220432  0.02043590     0.36000
H786        H  0.68264259  0.50418114  0.07725569     0.28600
H787        H  0.79585037  0.53929333  0.18039803     0.41500
H788        H  0.87712796  0.45492202  0.07713234     0.31500
H789        H  0.80323910  0.42277744  0.10174161     0.39100
H790        H  0.76952921  0.59742099  0.06245581     0.31000
H791        H  0.87340565  0.49194135  0.04690121     0.31100
H792        H  0.79684799  0.49037278  0.97956414     0.31300
Zr793      Zr  0.32337986  0.98722387  0.89854675     2.17500
O794        O  0.33655566  0.00111890  0.85483933    -0.51000
O795        O  0.32872274  0.94129844  0.88700112    -0.74200
O796        O  0.37012067  0.97883786  0.89309947    -0.81000
O797        O  0.25153763  0.00344308  0.88696839    -0.82800
O798        O  0.38733332  0.97849458  0.93390717    -0.78400
O799        O  0.29018809  0.99737793  0.86556242    -0.90000
O800        O  0.33838314  0.92232337  0.92588897    -0.76000
O801        O  0.34524864  0.97215566  0.93637206    -0.85500
O802        O  0.29125153  0.96285920  0.92270032    -0.85200
O803        O  0.34161135  0.02538082  0.91973149    -0.71900
O804        O  0.29027507  0.01743040  0.91141886    -0.84100
Zr805      Zr  0.29885537  0.02044208  0.99331516     2.26400
Zr806      Zr  0.36176402  0.00905754  0.95908776     2.06300
Zr807      Zr  0.25833322  0.99376014  0.93646425     2.10000
Zr808      Zr  0.31509177  0.94787904  0.96018892     1.78800
O809        O  0.21632726  0.01602152  0.93900702    -0.92900
O810        O  0.35238994  0.92821302  0.98261340    -0.40700
O811        O  0.28356961  0.98002407  0.97337553    -0.77300
O812        O  0.32994066  0.98592219  0.98465598    -0.96000
O813        O  0.33077984  0.04268578  0.96866610    -0.89300
O814        O  0.27501885  0.03377273  0.95549370    -0.92100
C815        C  0.33920470  0.92285521  0.90059264     1.01600
C816        C  0.26583192  0.00382718  0.86548742     1.14500
C817        C  0.38839567  0.97310051  0.90949857     1.05300
O818        O  0.40613274  0.00304244  0.97561023    -0.94300
O819        O  0.36989580  0.01212728  0.00571844    -0.90000
O820        O  0.33432922  0.03253955  0.02154064    -0.83200
C821        C  0.35829834  0.02579246  0.02315120     1.12000
O822        O  0.32034770  0.07344673  0.88805319    -0.96300
Zr823      Zr  0.30761853  0.05638678  0.93074154     1.88900
O824        O  0.28542293  0.06596279  0.00038479    -0.72900
O825        O  0.38626549  0.04789743  0.94595867    -0.52200
O826        O  0.34089786  0.09015738  0.93672631    -0.96900
O827        O  0.27210113  0.07788824  0.90723146    -0.54100
O828        O  0.28969906  0.08776537  0.96200333    -0.73400
C829        C  0.28305363  0.08667878  0.98622788     0.98900
O830        O  0.29287273  0.01221081  0.03992079    -0.62300
O831        O  0.23239470  0.95566100  0.92402105    -0.57100
O832        O  0.25368706  0.01933142  0.00257715    -0.93700
O833        O  0.24521891  0.98123416  0.98449455    -0.92200
O834        O  0.28100617  0.91493672  0.95471579    -0.92500
O835        O  0.30512224  0.92295559  0.99959020    -0.91300
C836        C  0.24523632  0.99636699  0.00523180     1.17800
H837        H  0.28393459  0.94866358  0.91254828     0.33700
H838        H  0.33695867  0.97940527  0.00099383     0.44500
H839        H  0.26057558  0.04515528  0.95964118     0.38100
H840        H  0.35450100  0.03344011  0.90846174     0.34600
H841        H  0.35518213  0.91115442  0.97385423     0.26300
H842        H  0.39318624  0.05519730  0.96254761     0.32300
H843        H  0.34189207  0.09313534  0.95585861     0.38200
H844        H  0.28743446  0.90347790  0.94050280     0.32600
H845        H  0.23311360  0.94401373  0.93952452     0.31500
H846        H  0.21268554  0.02182691  0.92086586     0.33200
H847        H  0.25683538  0.07640846  0.91904550     0.32200
H848        H  0.31181575  0.93392173  0.01412407     0.36200
H849        H  0.30777026  0.00142514  0.04605547     0.28900
H850        H  0.34543132  0.98575502  0.84708091     0.33100
H851        H  0.32334137  0.05769007  0.87718044     0.36000
H852        H  0.21412776  0.96205481  0.92354263     0.28600
H853        H  0.29447614  0.02927337  0.04901581     0.41500
H854        H  0.40660809  0.98486257  0.98244270     0.31500
H855        H  0.36756408  0.93905751  0.97729435     0.39100
H856        H  0.26790147  0.06594889  0.89253803     0.31000
H857        H  0.40185188  0.04102422  0.93677475     0.31100
H858        H  0.35067086  0.01411461  0.85775104     0.31300
Zr859      Zr  0.22949916  0.00315586  0.48390878     2.17500
O860        O  0.21737844  0.01605460  0.52812974    -0.51000
O861        O  0.24723412  0.95993337  0.49495172    -0.74200
O862        O  0.19385418  0.97639800  0.49883632    -0.81000
O863        O  0.28364976  0.04443076  0.48495940    -0.82800
O864        O  0.16008028  0.99658144  0.47995847    -0.78400
O865        O  0.27072675  0.00748211  0.50454714    -0.90000
O866        O  0.25014514  0.93786661  0.45652706    -0.76000
O867        O  0.20702103  0.97848420  0.45181475    -0.85500
O868        O  0.26234322  0.99359442  0.45205744    -0.85200
O869        O  0.19602925  0.03308017  0.46867736    -0.71900
O870        O  0.24470875  0.04483020  0.46698629    -0.84100
Zr871      Zr  0.21999234  0.03635659  0.38585728     2.26400
Zr872      Zr  0.17378260  0.00732175  0.43606910     2.06300
Zr873      Zr  0.27751669  0.03492362  0.43501587     2.10000
Zr874      Zr  0.23921750  0.96795807  0.42063237     1.78800
O875        O  0.29973475  0.07663741  0.42827443    -0.92900
O876        O  0.21094876  0.92970360  0.41594915    -0.40700
O877        O  0.25357442  0.00930074  0.40427642    -0.77300
O878        O  0.20432825  0.99435724  0.40263729    -0.96000
O879        O  0.18928855  0.04772221  0.41855631    -0.89300
O880        O  0.24389518  0.06290263  0.41636265    -0.92100
C881        C  0.25242661  0.93922343  0.48160323     1.01600
C882        C  0.28036627  0.03018759  0.50619676     1.14500
C883        C  0.16981794  0.97707271  0.49209726     1.05300
O884        O  0.15375416  0.96748908  0.41890849    -0.94300
O885        O  0.15880503  0.03375990  0.40031653    -0.90000
O886        O  0.18053637  0.01948418  0.36604775    -0.83200
C887        C  0.15894055  0.02325488  0.37784901     1.12000
O888        O  0.21915126  0.09674111  0.49009251    -0.96300
Zr889      Zr  0.21193717  0.07351680  0.44909731     1.88900
O890        O  0.19720834  0.07770491  0.37688305    -0.72900
O891        O  0.12726062  0.01677747  0.44077155    -0.52200
O892        O  0.17157342  0.08948155  0.46873697    -0.96900
O893        O  0.23952322  0.11244619  0.44619355    -0.54100
O894        O  0.18667845  0.09722829  0.41519430    -0.73400
C895        C  0.18440309  0.09477733  0.39017916     0.98900
O896        O  0.22535437  0.04740261  0.33982276    -0.62300
O897        O  0.32240362  0.02053571  0.44186189    -0.57100
O898        O  0.25823248  0.02851476  0.35908066    -0.93700
O899        O  0.29251652  0.02354735  0.38731514    -0.92200
O900        O  0.28256480  0.95287035  0.40797662    -0.92500
O901        O  0.24149073  0.95067650  0.37629872    -0.91300
C902        C  0.28227140  0.02292199  0.36348546     1.17800
H903        H  0.27681411  0.98394270  0.45950395     0.33700
H904        H  0.19565491  0.98363042  0.38970088     0.44500
H905        H  0.25106272  0.07809735  0.40770921     0.38100
H906        H  0.18454531  0.03762222  0.48294979     0.34600
H907        H  0.19928410  0.93369453  0.40096765     0.26300
H908        H  0.11924851  0.00063640  0.44793458     0.32300
H909        H  0.15743699  0.08242265  0.45747520     0.38200
H910        H  0.29379652  0.95616983  0.42343799     0.32600
H911        H  0.32855672  0.03065981  0.45721511     0.31500
H912        H  0.30368423  0.07706012  0.40931506     0.33200
H913        H  0.23816650  0.11843149  0.42780074     0.32200
H914        H  0.22897331  0.96126190  0.36594519     0.36200
H915        H  0.20768039  0.04523236  0.33221707     0.28900
H916        H  0.23252724  0.01145359  0.53929513     0.33100
H917        H  0.20927337  0.08662129  0.50335781     0.36000
H918        H  0.32085353  0.00231121  0.44833737     0.28600
H919        H  0.22864617  0.06653095  0.33919446     0.41500
H920        H  0.13699293  0.97318870  0.41102791     0.31500
H921        H  0.22254168  0.91555158  0.40959348     0.39100
H922        H  0.25766684  0.10593161  0.44807570     0.31000
H923        H  0.12624122  0.02971940  0.45515462     0.31100
H924        H  0.21697348  0.03542497  0.52774963     0.31300
Zr925      Zr  0.22887814  0.96897090  0.62961431     2.17500
O926        O  0.24023074  0.96691512  0.58322022    -0.51000
O927        O  0.18368282  0.95798597  0.61575588    -0.74200
O928        O  0.23359896  0.92860735  0.60629767    -0.81000
O929        O  0.26064900  0.03234941  0.63786688    -0.82800
O930        O  0.21407674  0.90825845  0.63891064    -0.78400
O931        O  0.23438304  0.01156244  0.60899677    -0.90000
O932        O  0.16343772  0.94311662  0.65204603    -0.76000
O933        O  0.20753397  0.94004161  0.65885975    -0.85500
O934        O  0.20748545  0.99684900  0.66073153    -0.85200
O935        O  0.26292540  0.94171848  0.64913016    -0.71900
O936        O  0.26335818  0.99253505  0.65206770    -0.84100
Zr937      Zr  0.25201101  0.96301837  0.73127783     2.26400
Zr938      Zr  0.23955236  0.91295676  0.67851340     2.06300
Zr939      Zr  0.24229217  0.02053258  0.68345183     2.10000
Zr940      Zr  0.18532171  0.96614559  0.68880141     1.78800
O941        O  0.26412261  0.06287091  0.68646452    -0.92900
O942        O  0.15764989  0.93343658  0.70981448    -0.40700
O943        O  0.21921121  0.99020760  0.71083673    -0.77300
O944        O  0.21735620  0.93834323  0.71082569    -0.96000
O945        O  0.27343144  0.93677831  0.70009762    -0.89300
O946        O  0.27489488  0.99354590  0.70357665    -0.92100
C947        C  0.16585327  0.94389996  0.62689497     1.01600
C948        C  0.25316129  0.02745235  0.61376549     1.14500
C949        C  0.22556084  0.90754307  0.61691122     1.05300
O950        O  0.20979576  0.87834940  0.69250009    -0.94300
O951        O  0.26161889  0.89242629  0.71472771    -0.90000
O952        O  0.25584554  0.91921423  0.74941311    -0.83200
C953        C  0.26495608  0.89848191  0.73879107     1.12000
O954        O  0.32322816  0.96078472  0.63368271    -0.96300
Zr955      Zr  0.29607529  0.96599006  0.67246299     1.88900
O956        O  0.29637291  0.97450289  0.74687974    -0.72900
O957        O  0.26578484  0.87849249  0.65884555    -0.52200
O958        O  0.32176782  0.92581104  0.67186272    -0.96900
O959        O  0.32388987  0.00311059  0.66108436    -0.54100
O960        O  0.32312153  0.97087647  0.71171421    -0.73400
C961        C  0.31925647  0.97503879  0.73623777     0.98900
O962        O  0.24730808  0.96164595  0.77880686    -0.62300
O963        O  0.20579376  0.05096917  0.67972984    -0.57100
O964        O  0.22487326  0.99625279  0.74869376    -0.93700
O965        O  0.24734238  0.03000659  0.73382056    -0.92200
O966        O  0.15322265  0.99909045  0.67605019    -0.92500
O967        O  0.16101015  0.98121058  0.72683609    -0.91300
C968        C  0.23700345  0.01719397  0.75365872     1.17800
H969        H  0.19565840  0.00857115  0.65179082     0.33700
H970        H  0.20894206  0.92713520  0.72355691     0.44500
H971        H  0.28681485  0.00531943  0.71235063     0.38100
H972        H  0.27171372  0.93141231  0.63598950     0.34600
H973        H  0.14034535  0.93546510  0.70130277     0.26300
H974        H  0.28382768  0.88189613  0.66507642     0.32300
H975        H  0.32572087  0.92197491  0.69045898     0.38200
H976        H  0.14740121  0.99389268  0.65830164     0.32600
H977        H  0.19171022  0.04291064  0.69032638     0.31500
H978        H  0.28290590  0.05850421  0.68828222     0.33200
H979        H  0.32208997  0.01537382  0.67596911     0.32200
H980        H  0.16928352  0.99809512  0.73164219     0.36200
H981        H  0.23233168  0.94981020  0.78228366     0.28900
H982        H  0.22706388  0.97759193  0.57381565     0.33100
H983        H  0.31083617  0.95616357  0.61949862     0.36000
H984        H  0.21124678  0.06653555  0.68992783     0.28600
H985        H  0.26284832  0.95240131  0.78576376     0.41500
H986        H  0.20982331  0.87918416  0.71186171     0.31500
H987        H  0.16424729  0.91643623  0.70326348     0.39100
H988        H  0.31475855  0.01195532  0.64643069     0.31000
H989        H  0.26040955  0.86226270  0.66803519     0.31100
H990        H  0.25703106  0.97631850  0.58116129     0.31300
Zr991      Zr  0.27849008  0.07018376  0.14416094     2.17500
O992        O  0.27616472  0.08207125  0.09784072    -0.51000
O993        O  0.32305787  0.08242193  0.13297891    -0.74200
O994        O  0.26574880  0.11584005  0.13554444    -0.81000
O995        O  0.27033913  0.99461276  0.13639116    -0.82800
O996        O  0.26683648  0.13612333  0.17483525    -0.78400
O997        O  0.26837603  0.03356264  0.11467958    -0.90000
O998        O  0.34063892  0.09589367  0.17134709    -0.76000
O999        O  0.29031109  0.09570164  0.18105582    -0.85500
O1000       O  0.30747752  0.04281347  0.16914506    -0.85200
O1001       O  0.23793219  0.08105417  0.16559154    -0.71900
O1002       O  0.25494541  0.03264098  0.15862753    -0.84100
Zr1003     Zr  0.24963884  0.04120573  0.24097747     2.26400
Zr1004     Zr  0.25092427  0.10413275  0.20451697     2.06300
Zr1005     Zr  0.28274886  0.00527494  0.18466183     2.10000
Zr1006     Zr  0.31864617  0.06956779  0.20589487     1.78800
O1007       O  0.26898334  0.95983063  0.18941395    -0.92900
O1008       O  0.33158757  0.10924695  0.22912128    -0.40700
O1009       O  0.29178310  0.03371359  0.22039661    -0.77300
O1010       O  0.27880582  0.07758899  0.23106924    -0.96000
O1011       O  0.22285330  0.06795698  0.21465551    -0.89300
O1012       O  0.24048304  0.01448243  0.20384272    -0.92100
C1013       C  0.33983240  0.09571157  0.14608937     1.01600
C1014       C  0.26575017  0.00843614  0.11504962     1.14500
C1015       C  0.26561221  0.13652185  0.14999432     1.05300
O1016       O  0.26823350  0.14213313  0.22767474    -0.94300
O1017       O  0.23126505  0.11187319  0.24636123    -0.90000
O1018       O  0.23890002  0.07592452  0.27108283    -0.83200
C1019       C  0.22916963  0.09861556  0.26750021     1.12000
O1020       O  0.19405483  0.04615037  0.13375908    -0.96300
Zr1021     Zr  0.21359699  0.04222964  0.17710388     1.88900
O1022       O  0.20497953  0.02419764  0.24749412    -0.72900
O1023       O  0.21127407  0.12780078  0.19267226    -0.52200
O1024       O  0.17544478  0.07078610  0.17720048    -0.96900
O1025       O  0.20103772  0.00095368  0.15665589    -0.54100
O1026       O  0.18350935  0.02431497  0.20875449    -0.73400
C1027       C  0.18466768  0.01965648  0.23332087     0.98900
O1028       O  0.25140308  0.02933884  0.28735676    -0.62300
O1029       O  0.32389668  0.98558501  0.17112530    -0.57100
O1030       O  0.26302404  0.99874511  0.25456739    -0.93700
O1031       O  0.30016217  0.99876714  0.23284522    -0.92200
O1032       O  0.35496017  0.03965529  0.19817306    -0.92500
O1033       O  0.34944755  0.06315056  0.24186860    -0.91300
C1034       C  0.28750266  0.99647759  0.25515953     1.17800
H1035       H  0.32250894  0.03759519  0.15899174     0.33700
H1036       H  0.28333529  0.08682492  0.24695344     0.44500
H1037       H  0.23161224  0.99847896  0.20871369     0.38100
H1038       H  0.22716466  0.09210873  0.15466363     0.34600
H1039       H  0.34791749  0.11509059  0.22047992     0.26300
H1040       H  0.19691802  0.11727368  0.20035566     0.32300
H1041       H  0.16025996  0.05885413  0.17529970     0.38200
H1042       H  0.36644260  0.04904174  0.18568209     0.32600
H1043       H  0.33135531  0.97815934  0.18742115     0.31500
H1044       H  0.25206475  0.95888782  0.17997535     0.33200
H1045       H  0.20062810  0.98805979  0.17114639     0.32200
H1046       H  0.36604557  0.07148878  0.23629052     0.36200
H1047       H  0.25893623  0.04405748  0.29746095     0.28900
H1048       H  0.28846664  0.07036190  0.08855141     0.33100
H1049       H  0.19901112  0.06384505  0.12752148     0.36000
H1050       H  0.31869431  0.97012439  0.16063838     0.28600
H1051       H  0.23294538  0.02798680  0.29299925     0.41500
H1052       H  0.25617301  0.15666873  0.22331404     0.31500
H1053       H  0.31844027  0.12246306  0.22384354     0.39100
H1054       H  0.21637808  0.99579555  0.14606334     0.31000
H1055       H  0.21176011  0.14387713  0.20348358     0.31100
H1056       H  0.25850751  0.07684407  0.09174597     0.31300
Zr1057     Zr  0.98201206  0.88353428  0.29436127     2.17500
O1058       O  0.99116422  0.83660145  0.29375559    -0.51000
O1059       O  0.93727450  0.87923171  0.31165556    -0.74200
O1060       O  0.98014021  0.86218925  0.33691524    -0.81000
O1061       O  0.99483926  0.88963659  0.22441329    -0.82800
O1062       O  0.99056785  0.89495154  0.36493197    -0.78400
O1063       O  0.97199558  0.86369778  0.25212392    -0.90000
O1064       O  0.93100091  0.91696384  0.33372534    -0.76000
O1065       O  0.97757764  0.91513738  0.32756628    -0.85500
O1066       O  0.95970657  0.91972196  0.27394634    -0.85200
O1067       O  0.02608763  0.89238209  0.30975742    -0.71900
O1068       O  0.01104289  0.90101758  0.26172247    -0.84100
Zr1069     Zr  0.02639721  0.97617837  0.29219872     2.26400
Zr1070     Zr  0.02013779  0.92438832  0.34350619     2.06300
Zr1071     Zr  0.98892841  0.93697807  0.24074454     2.10000
Zr1072     Zr  0.95479013  0.95035023  0.30917007     1.78800
O1073       O  0.00555421  0.94570137  0.19693546    -0.92900
O1074       O  0.94490929  0.97231926  0.35027117    -0.40700
O1075       O  0.98321492  0.96693588  0.27608403    -0.77300
O1076       O  0.99770349  0.96134963  0.32600144    -0.96000
O1077       O  0.04818404  0.93999312  0.31047897    -0.89300
O1078       O  0.03233636  0.94633100  0.25655959    -0.92100
C1079       C  0.92653752  0.89242968  0.33027427     1.01600
C1080       C  0.98594889  0.86655682  0.23149046     1.14500
C1081       C  0.98059784  0.87252408  0.35980849     1.05300
O1082       O  0.01278995  0.94493178  0.38584573    -0.94300
O1083       O  0.05560855  0.95437650  0.35446060    -0.90000
O1084       O  0.05254035  0.99036073  0.32821722    -0.83200
C1085       C  0.06289631  0.97724929  0.34681818     1.12000
O1086       O  0.07053253  0.86559546  0.27315649    -0.96300
Zr1087     Zr  0.05454613  0.91043484  0.27626255     1.88900
O1088       O  0.07102619  0.98480119  0.27923489    -0.72900
O1089       O  0.04902320  0.89327398  0.36543051    -0.52200
O1090       O  0.09264482  0.90171179  0.30357856    -0.96900
O1091       O  0.06711964  0.89991847  0.23152687    -0.54100
O1092       O  0.08798194  0.94482997  0.26932922    -0.73400
C1093       C  0.08971448  0.96999447  0.27142840     0.98900
O1094       O  0.00664011  0.01648731  0.30870261    -0.62300
O1095       O  0.94744148  0.93464165  0.21724580    -0.57100
O1096       O  0.02588486  0.99491460  0.24948481    -0.93700
O1097       O  0.98522585  0.98828554  0.23883023    -0.92200
O1098       O  0.91234092  0.94945650  0.28742562    -0.92500
O1099       O  0.93688355  0.99429308  0.30411589    -0.91300
C1100       C  0.00413917  0.00484334  0.24395886     1.17800
H1101       H  0.94309566  0.91421756  0.26676656     0.33700
H1102       H  0.99624958  0.97453494  0.33945543     0.44500
H1103       H  0.04318606  0.95290465  0.24253192     0.38100
H1104       H  0.03350229  0.87668323  0.31714335     0.34600
H1105       H  0.92583640  0.96988195  0.35262241     0.26300
H1106       H  0.06049196  0.90425883  0.37657441     0.32300
H1107       H  0.08542684  0.89849612  0.32126267     0.50200
H1108       H  0.89948846  0.95096541  0.30182158     0.32600
H1109       H  0.95210130  0.93744583  0.19865046     0.31500
H1110       H  0.01808779  0.96033591  0.19922379     0.33200
H1111       H  0.07789866  0.91498350  0.22574584     0.32200
H1112       H  0.94115438  0.99942599  0.28591770     0.36200
H1113       H  0.98759217  0.01298616  0.30898485     0.28900
H1114       H  0.97481750  0.82802114  0.28778315     0.33100
H1115       H  0.06149287  0.85576043  0.28719692     0.36000
H1116       H  0.94230472  0.91594286  0.21816153     0.28600
H1117       H  0.01165917  0.01798780  0.32735754     0.41500
H1118       H  0.99468730  0.95171150  0.38495920     0.31500
H1119       H  0.95287665  0.96101378  0.36386739     0.39100
H1120       H  0.05073753  0.90148798  0.22127291     0.31000
H1121       H  0.03783792  0.88369694  0.37803379     0.31100
H1122       H  0.00386517  0.83388658  0.27943248     0.31300
Zr1123     Zr  0.99356214  0.47500099  0.21564314     2.17500
O1124       O  0.99715192  0.52111469  0.20357900    -0.51000
O1125       O  0.95230102  0.47871098  0.24056012    -0.74200
O1126       O  0.95942925  0.48630171  0.18565991    -0.81000
O1127       O  0.05203479  0.48898820  0.24789848    -0.82800
O1128       O  0.94849072  0.44672268  0.16953060    -0.78400
O1129       O  0.01056605  0.50229302  0.24935598    -0.90000
O1130       O  0.94230201  0.43792048  0.25493089    -0.76000
O1131       O  0.96970716  0.43653377  0.20599787    -0.85500
O1132       O  0.00103747  0.44709427  0.25227948    -0.85200
O1133       O  0.01109007  0.46113761  0.17401568    -0.71900
O1134       O  0.03710609  0.46242548  0.21416274    -0.84100
Zr1135     Zr  0.04288015  0.38408711  0.19902089     2.26400
Zr1136     Zr  0.98787838  0.42113102  0.16586417     2.06300
Zr1137     Zr  0.04734726  0.43844388  0.25079726     2.10000
Zr1138     Zr  0.97723237  0.40814276  0.24103570     1.78800
O1139       O  0.09338216  0.43469075  0.26257671    -0.92900
O1140       O  0.93870392  0.38510171  0.22470951    -0.40700
O1141       O  0.02269751  0.40258261  0.23660387    -0.77300
O1142       O  0.99543008  0.39015932  0.20054374    -0.96000
O1143       O  0.03387001  0.41318284  0.16400969    -0.89300
O1144       O  0.06739418  0.42232138  0.21087627    -0.92100
C1145       C  0.93715072  0.46248470  0.25265895     1.01600
C1146       C  0.03471240  0.50787176  0.24863719     1.14500
C1147       C  0.94289501  0.47026835  0.17607746     1.05300
O1148       O  0.95075752  0.39912075  0.14539168    -0.94300
O1149       O  0.99516648  0.37942194  0.14528568    -0.90000
O1150       O  0.02415637  0.35457881  0.16807416    -0.83200
C1151       C  0.00834290  0.35847529  0.14927534     1.12000
O1152       O  0.07587423  0.49530457  0.17164475    -0.96300
Zr1153     Zr  0.05740838  0.45134859  0.17502386     1.88900
O1154       O  0.07903652  0.38245245  0.16693736    -0.72900
O1155       O  0.99239222  0.44153302  0.12297931    -0.52200
O1156       O  0.04883002  0.47268286  0.13309015    -0.96900
O1157       O  0.10471881  0.45460121  0.18145317    -0.54100
O1158       O  0.07486454  0.41949977  0.14327190    -0.73400
C1159       C  0.08333518  0.39593968  0.14604615     0.98900
O1160       O  0.05826095  0.33937367  0.20669234    -0.62300
O1161       O  0.04764663  0.44877178  0.29728784    -0.57100
O1162       O  0.05999426  0.36516294  0.23904143    -0.93700
O1163       O  0.03901595  0.39045527  0.26763116    -0.92200
O1164       O  0.98644514  0.40476113  0.28774560    -0.92500
O1165       O  0.96755194  0.36727401  0.26384497    -0.91300
C1166       C  0.04640016  0.36695924  0.25979193     1.17800
H1167       H  0.99552941  0.45477577  0.26862426     0.33700
H1168       H  0.98630121  0.37408486  0.19651554     0.44500
H1169       H  0.08569605  0.41829301  0.21297080     0.38100
H1170       H  0.00708268  0.47407823  0.16084077     0.34600
H1171       H  0.92391005  0.39222150  0.23494837     0.26300
H1172       H  0.99010894  0.42695405  0.11040436     0.32300
H1173       H  0.05988706  0.46331670  0.12027052     0.38200
H1174       H  0.97396116  0.41696452  0.29610006     0.32600
H1175       H  0.03751707  0.46522567  0.29867392     0.31500
H1176       H  0.10125969  0.45143134  0.25671373     0.33200
H1177       H  0.11163420  0.43668614  0.17879343     0.32200
H1178       H  0.95099383  0.37039390  0.27337958     0.36200
H1179       H  0.04315281  0.32759877  0.20363679     0.28900
H1180       H  0.97972967  0.52853537  0.20756184     0.33100
H1181       H  0.08777899  0.49505656  0.15635721     0.36000
H1182       H  0.03623238  0.43526961  0.30527659     0.28600
H1183       H  0.07043703  0.33559860  0.19213198     0.41500
H1184       H  0.94628291  0.40994599  0.12992378     0.31500
H1185       H  0.93599504  0.39209291  0.20682017     0.39100
H1186       H  0.10726337  0.45820045  0.20032578     0.31000
H1187       H  0.97639261  0.45226156  0.12091369     0.31100
H1188       H  0.99827210  0.52133530  0.18423558     0.31300
Zr1189     Zr  0.96997500  0.72271347  0.26111597     2.17500
O1190       O  0.94978502  0.76594353  0.25849192    -0.51000
O1191       O  0.99165333  0.72981406  0.30302785    -0.74200
O1192       O  0.93536877  0.73193365  0.29143669    -0.81000
O1193       O  0.01133866  0.73654460  0.20682764    -0.82800
O1194       O  0.92552433  0.69186361  0.30629556    -0.78400
O1195       O  0.00051916  0.75452902  0.24568844    -0.90000
O1196       O  0.00194684  0.68946469  0.31836996    -0.76000
O1197       O  0.96148301  0.68450665  0.28589045    -0.85500
O1198       O  0.00888950  0.69685935  0.25850161    -0.85200
O1199       O  0.93162042  0.70456535  0.24049736    -0.71900
O1200       O  0.97561076  0.71339198  0.21529626    -0.84100
Zr1201     Zr  0.96422140  0.62915156  0.21647901     2.26400
Zr1202     Zr  0.92363593  0.66603332  0.26609295     2.06300
Zr1203     Zr  0.01327371  0.68588587  0.21293830     2.10000
Zr1204     Zr  0.99818975  0.65791203  0.28240702     1.78800
O1205       O  0.02639941  0.68267368  0.16722638    -0.92900
O1206       O  0.97896663  0.63455557  0.31944051    -0.40700
O1207       O  0.99654630  0.65252471  0.23780230    -0.77300
O1208       O  0.96041596  0.63640146  0.26320556    -0.96000
O1209       O  0.92729165  0.65669785  0.22036822    -0.89300
O1210       O  0.97596081  0.66652698  0.19072005    -0.92100
C1211       C  0.99973854  0.71438876  0.32120847     1.01600
C1212       C  0.00721619  0.75704575  0.22187807     1.14500
C1213       C  0.92951598  0.71644131  0.31010074     1.05300
O1214       O  0.90090804  0.64104271  0.29982564    -0.94300
O1215       O  0.90460051  0.62425948  0.25590745    -0.90000
O1216       O  0.93391598  0.59825015  0.23518082    -0.83200
C1217       C  0.91203786  0.60239433  0.24630091     1.12000
O1218       O  0.93653319  0.73826554  0.17709150    -0.96300
Zr1219     Zr  0.93804272  0.69392186  0.19486234     1.88900
O1220       O  0.93414318  0.62339270  0.17904108    -0.72900
O1221       O  0.88087978  0.68639224  0.26020883    -0.52200
O1222       O  0.89469345  0.71376849  0.19425186    -0.96900
O1223       O  0.94989671  0.69106580  0.14865380    -0.54100
O1224       O  0.91027394  0.66039037  0.17549154    -0.73400
C1225       C  0.91408621  0.63607140  0.17052200     0.98900
O1226       O  0.97482701  0.58382452  0.20538227    -0.62300
O1227       O  0.05950374  0.69711388  0.21640410    -0.57100
O1228       O  0.00541287  0.61373936  0.19951805    -0.93700
O1229       O  0.03293481  0.63989109  0.22118145    -0.92200
O1230       O  0.04582123  0.65957497  0.28121196    -0.92500
O1231       O  0.02307894  0.62008012  0.29779808    -0.91300
C1232       C  0.02577138  0.61640685  0.21359569     1.17800
H1233       H  0.02404308  0.70592314  0.26529488     0.33700
H1234       H  0.95694478  0.62037086  0.27261384     0.44500
H1235       H  0.97978666  0.66140644  0.17298859     0.38100
H1236       H  0.91736650  0.71684352  0.24217395     0.34600
H1237       H  0.98749754  0.64206766  0.33516269     0.26300
H1238       H  0.86825112  0.67358942  0.26747798     0.32300
H1239       H  0.88727008  0.70915374  0.17693684     0.38200
H1240       H  0.05058369  0.67372846  0.29359905     0.32600
H1241       H  0.06791406  0.68777542  0.20168346     0.31500
H1242       H  0.02918427  0.66371180  0.16428719     0.33200
H1243       H  0.96269053  0.70534441  0.14567395     0.32200
H1244       H  0.02972785  0.62489227  0.31538709     0.36200
H1245       H  0.97334427  0.57360667  0.22179374     0.28900
H1246       H  0.96265662  0.77858851  0.26562941     0.33100
H1247       H  0.92645215  0.73725751  0.16055426     0.36000
H1248       H  0.06044049  0.71585018  0.21140846     0.28600
H1249       H  0.96006843  0.57763915  0.19439595     0.41500
H1250       H  0.88887785  0.65363861  0.30824872     0.31500
H1251       H  0.96071978  0.64097311  0.32033900     0.39100
H1252       H  0.93404085  0.69636287  0.13883252     0.31000
H1253       H  0.88070002  0.70113161  0.27279666     0.31100
H1254       H  0.94859750  0.76995220  0.23958612     0.31300
Zr1255     Zr  0.05117303  0.22767190  0.22656604     2.17500
O1256       O  0.05413515  0.27545056  0.22645821    -0.51000
O1257       O  0.03114369  0.22900205  0.18254617    -0.74200
O1258       O  0.09065296  0.24362320  0.20724014    -0.81000
O1259       O  0.01139019  0.23808725  0.28127430    -0.82800
O1260       O  0.10820563  0.20786120  0.18969740    -0.78400
O1261       O  0.01451279  0.25272435  0.24038392    -0.90000
O1262       O  0.02009817  0.18743836  0.17140890    -0.76000
O1263       O  0.06846279  0.19137026  0.20357593    -0.85500
O1264       O  0.01716984  0.19563860  0.22794318    -0.85200
O1265       O  0.09046994  0.21728656  0.25103691    -0.71900
O1266       O  0.04640166  0.21484853  0.26971652    -0.84100
Zr1267     Zr  0.06793481  0.13812027  0.27514251     2.26400
Zr1268     Zr  0.10702334  0.17966637  0.22774289     2.06300
Zr1269     Zr  0.01105948  0.18756500  0.27400910     2.10000
Zr1270     Zr  0.03606731  0.15869722  0.20572281     1.78800
O1271       O  0.99330241  0.18198776  0.31787460    -0.92900
O1272       O  0.06016049  0.14270101  0.16787092    -0.40700
O1273       O  0.03069765  0.15249482  0.25103398    -0.77300
O1274       O  0.07526903  0.14507285  0.22888472    -0.96000
O1275       O  0.09870227  0.17208744  0.27258733    -0.89300
O1276       O  0.04885102  0.17379503  0.29909668    -0.92100
C1277       C  0.02059864  0.21216569  0.16692640     1.01600
C1278       C  0.01227564  0.25761319  0.26455428     1.14500
C1279       C  0.10049151  0.23162289  0.18798753     1.05300
O1280       O  0.12501910  0.14674673  0.19835801    -0.94300
O1281       O  0.13626458  0.15483683  0.25599607    -0.90000
O1282       O  0.11322962  0.12463004  0.27917480    -0.83200
C1283       C  0.13468876  0.13573164  0.27237693     1.12000
O1284       O  0.09099784  0.25272214  0.30606247    -0.96300
Zr1285     Zr  0.08203603  0.20680038  0.29654666     1.88900
O1286       O  0.08546461  0.13573695  0.31930406    -0.72900
O1287       O  0.14880233  0.20250962  0.22444955    -0.52200
O1288       O  0.12809822  0.21752497  0.30281479    -0.96900
O1289       O  0.05921556  0.21934600  0.33645478    -0.54100
O1290       O  0.10537800  0.17487701  0.32502980    -0.73400
C1291       C  0.10285379  0.15024435  0.33033502     0.98900
O1292       O  0.07061236  0.09222345  0.26214710    -0.62300
O1293       O  0.96502025  0.19639711  0.26544865    -0.57100
O1294       O  0.02773781  0.12084046  0.29321994    -0.93700
O1295       O  0.99745698  0.13868271  0.26795482    -0.92200
O1296       O  0.99055421  0.14607335  0.19923074    -0.92500
O1297       O  0.02685606  0.11227536  0.19939208    -0.91300
C1298       C  0.00800378  0.11763568  0.27822438     1.17800
H1299       H  0.00130809  0.20173512  0.21964842     0.33700
H1300       H  0.08221843  0.12931655  0.22107501     0.44500
H1301       H  0.04457588  0.16900464  0.31689986     0.38100
H1302       H  0.10301497  0.23144892  0.25068050     0.34600
H1303       H  0.04666962  0.13510233  0.15618255     0.26300
H1304       H  0.14925112  0.21448066  0.23965863     0.32300
H1305       H  0.13591385  0.21628820  0.28516423     0.38200
H1306       H  0.98255392  0.14738168  0.21680725     0.32600
H1307       H  0.96266707  0.19292750  0.24653261     0.31500
H1308       H  0.98518090  0.19908393  0.32198856     0.33200
H1309       H  0.06471242  0.20618279  0.34961762     0.32200
H1310       H  0.02431151  0.10524918  0.21726649     0.36200
H1311       H  0.05950800  0.09102783  0.24630440     0.28900
H1312       H  0.07039652  0.27982044  0.23609949     0.33100
H1313       H  0.09725615  0.25307713  0.32443102     0.36000
H1314       H  0.95565571  0.18181356  0.27418657     0.28600
H1315       H  0.08856568  0.08955264  0.25545735     0.41500
H1316       H  0.11481598  0.14870071  0.18197743     0.31500
H1317       H  0.06608774  0.15869469  0.15863568     0.39100
H1318       H  0.04054718  0.21540908  0.33305385     0.31000
H1319       H  0.16228198  0.18914703  0.22835157     0.31100
H1320       H  0.05754147  0.28054637  0.20806585     0.31300
Zr1321     Zr  0.88528616  0.78292671  0.46021563     2.17500
O1322       O  0.92156695  0.81087184  0.47381435    -0.51000
O1323       O  0.89112686  0.81842999  0.42775799    -0.74200
O1324       O  0.91504220  0.76361503  0.42889983    -0.81000
O1325       O  0.87984830  0.77520310  0.53350325    -0.82800
O1326       O  0.88619069  0.74496352  0.40052068    -0.78400
O1327       O  0.90990008  0.77787290  0.50047167    -0.90000
O1328       O  0.85093296  0.83291715  0.41576425    -0.76000
O1329       O  0.85400929  0.78548293  0.42616137    -0.85500
O1330       O  0.85013899  0.80796832  0.47862902    -0.85200
O1331       O  0.87451070  0.73754482  0.45078595    -0.71900
O1332       O  0.86655953  0.75868390  0.49545862    -0.84100
Zr1333     Zr  0.79107175  0.74099164  0.46913431     2.26400
Zr1334     Zr  0.84212898  0.74161696  0.41667449     2.06300
Zr1335     Zr  0.83260431  0.78283644  0.51515230     2.10000
Zr1336     Zr  0.81905226  0.81022722  0.44337035     1.78800
O1337       O  0.82423849  0.77298085  0.56103122    -0.92900
O1338       O  0.79735119  0.82038878  0.40188184    -0.40700
O1339       O  0.80197072  0.78562655  0.47963976    -0.77300
O1340       O  0.80551779  0.76617078  0.43212726    -0.96000
O1341       O  0.82739186  0.71745459  0.45336461    -0.89300
O1342       O  0.82083570  0.73830629  0.50516709    -0.92100
C1343       C  0.87592922  0.83266712  0.41348488     1.01600
C1344       C  0.90419512  0.77455068  0.52472096     1.14500
C1345       C  0.90922613  0.75205987  0.40742028     1.05300
O1346       O  0.82085643  0.76100380  0.37857234    -0.94300
O1347       O  0.81574331  0.70205181  0.41701142    -0.90000
O1348       O  0.77700493  0.71179368  0.43511753    -0.83200
C1349       C  0.79251838  0.69570672  0.42413953     1.12000
O1350       O  0.90214521  0.70252810  0.49714513    -0.96300
Zr1351     Zr  0.85685640  0.71402717  0.48800396     1.88900
O1352       O  0.78399967  0.69770420  0.48719283    -0.72900
O1353       O  0.85443391  0.71391949  0.37981942    -0.52200
O1354       O  0.87091665  0.67387909  0.46649487    -0.96900
O1355       O  0.86328714  0.70717722  0.53479221    -0.54100
O1356       O  0.82383316  0.68004370  0.49528069    -0.73400
C1357       C  0.79871653  0.67868334  0.49437036     0.98900
O1358       O  0.74656029  0.74981286  0.45437269    -0.62300
O1359       O  0.83666475  0.82717601  0.53228834    -0.57100
O1360       O  0.76602083  0.74851966  0.50739337    -0.93700
O1361       O  0.78193990  0.78791965  0.51850425    -0.92200
O1362       O  0.81995755  0.85258587  0.46543759    -0.92500
O1363       O  0.77525496  0.82885924  0.44393247    -0.91300
C1364       C  0.76219623  0.77164066  0.51541962     1.17800
H1365       H  0.85650665  0.82494052  0.48402990     0.33700
H1366       H  0.79164065  0.76635909  0.41932007     0.44500
H1367       H  0.81312462  0.72966226  0.52009690     0.38100
H1368       H  0.88922267  0.72722675  0.44545570     0.34600
H1369       H  0.81121104  0.81963754  0.38840126     0.26300
H1370       H  0.86003204  0.69713966  0.38781018     0.32300
H1371       H  0.88053161  0.67974764  0.45073206     0.38200
H1372       H  0.83511816  0.86197964  0.45784770     0.32600
H1373       H  0.82362232  0.83744398  0.52225752     0.31500
H1374       H  0.80921876  0.76070510  0.56074998     0.33200
H1375       H  0.85002746  0.69391981  0.53976674     0.32200
H1376       H  0.77235481  0.83391702  0.46238499     0.36200
H1377       H  0.74464111  0.76905121  0.45564801     0.28900
H1378       H  0.91381919  0.82850803  0.47599099     0.33100
H1379       H  0.91265596  0.71305383  0.48471425     0.36000
H1380       H  0.82935074  0.82618747  0.55019130     0.28600
H1381       H  0.73486233  0.74256245  0.46801409     0.41500
H1382       H  0.80597455  0.74917138  0.37469462     0.31500
H1383       H  0.78591010  0.80527130  0.39781720     0.39100
H1384       H  0.85722410  0.72357675  0.54312694     0.31000
H1385       H  0.83788837  0.70969238  0.37062473     0.31100
H1386       H  0.93289874  0.81239241  0.45820403     0.31300
Zr1387     Zr  0.28273442  0.78009625  0.55154596     2.17500
O1388       O  0.23543533  0.77708971  0.55779354    -0.51000
O1389       O  0.27811827  0.82549948  0.53669474    -0.74200
O1390       O  0.26370862  0.79235038  0.59281601    -0.81000
O1391       O  0.28035679  0.73517278  0.49806920    -0.82800
O1392       O  0.29753034  0.80789299  0.61596447    -0.78400
O1393       O  0.26179257  0.77285137  0.51044152    -0.90000
O1394       O  0.31878877  0.84287967  0.53237827    -0.76000
O1395       O  0.31611727  0.80229309  0.57473885    -0.85500
O1396       O  0.31681647  0.78679895  0.52034754    -0.85200
O1397       O  0.29418603  0.74971992  0.58586354    -0.71900
O1398       O  0.29538168  0.73704223  0.53707354    -0.84100
Zr1399     Zr  0.37623528  0.73669013  0.56490456     2.26400
Zr1400     Zr  0.32813300  0.77271008  0.60902027     2.06300
Zr1401     Zr  0.32953632  0.74365519  0.50579815     2.10000
Zr1402     Zr  0.35029816  0.80877798  0.54481680     1.78800
O1403       O  0.33433951  0.70299068  0.48143015    -0.92900
O1404       O  0.35972801  0.84327219  0.57646614    -0.40700
O1405       O  0.36213448  0.76582933  0.53101106    -0.77300
O1406       O  0.36440800  0.77999872  0.58007016    -0.96000
O1407       O  0.34069543  0.73107679  0.59337106    -0.89300
O1408       O  0.34382104  0.71384063  0.53969154    -0.92100
C1409       C  0.29371335  0.84435856  0.53062564     1.01600
C1410       C  0.25976903  0.75011346  0.50074146     1.14500
C1411       C  0.27414855  0.80971823  0.60726139     1.05300
O1412       O  0.35544522  0.80149770  0.63558056    -0.94300
O1413       O  0.35461228  0.74398448  0.63515853    -0.90000
O1414       O  0.38871227  0.72998765  0.61052164    -0.83200
C1415       C  0.37582645  0.73105905  0.63205963     1.12000
O1416       O  0.26457920  0.69061180  0.56744269    -0.96300
Zr1417     Zr  0.30904543  0.70741075  0.57052929     1.88900
O1418       O  0.38030612  0.69062625  0.57816668    -0.72900
O1419       O  0.30238747  0.76089864  0.64744195    -0.52200
O1420       O  0.28885320  0.69028245  0.61020246    -0.96900
O1421       O  0.31034537  0.66998467  0.54101234    -0.54100
O1422       O  0.34078727  0.68174961  0.59575574    -0.73400
C1423       C  0.36558688  0.67784474  0.59420826     0.98900
O1424       O  0.42291716  0.74647114  0.56791906    -0.62300
O1425       O  0.32517160  0.76151051  0.46173420    -0.57100
O1426       O  0.40347390  0.73286347  0.52614798    -0.93700
O1427       O  0.37792050  0.74934046  0.49344031    -0.92200
O1428       O  0.36684931  0.82232055  0.50221701    -0.92500
O1429       O  0.39503368  0.82509801  0.54381457    -0.91300
C1430       C  0.40084153  0.74348268  0.50347900     1.17800
H1431       H  0.31080217  0.79728852  0.50576276     0.33700
H1432       H  0.37888534  0.78772238  0.58952787     0.44500
H1433       H  0.35075792  0.69765447  0.53265187     0.38100
H1434       H  0.27934342  0.74679008  0.59731224     0.34600
H1435       H  0.34697735  0.85736161  0.57273052     0.26300
H1436       H  0.30711622  0.77407614  0.66085215     0.32300
H1437       H  0.28959887  0.70498769  0.62280912     0.38200
H1438       H  0.35135667  0.82221959  0.49055478     0.32600
H1439       H  0.30738752  0.75632132  0.45600816     0.31500
H1440       H  0.31691433  0.69454942  0.48249252     0.33200
H1441       H  0.29848439  0.67481330  0.52644026     0.32200
H1442       H  0.40394016  0.81622462  0.55859261     0.36200
H1443       H  0.42381123  0.76531524  0.57242294     0.28900
H1444       H  0.22689012  0.78364134  0.54166505     0.33100
H1445       H  0.25363238  0.70440128  0.57551037     0.36000
H1446       H  0.32419172  0.78073636  0.46402796     0.28600
H1447       H  0.42946764  0.73727025  0.58368618     0.41500
H1448       H  0.34485930  0.80517560  0.65135593     0.31500
H1449       H  0.35421054  0.83600516  0.59356149     0.39100
H1450       H  0.30107726  0.65578639  0.55043762     0.31000
H1451       H  0.28399296  0.76487954  0.64285638     0.31100
H1452       H  0.23158428  0.75809051  0.55832508     0.31300
Zr1453     Zr  0.62936629  0.69952283  0.48729856     2.17500
O1454       O  0.67453143  0.69553337  0.50217256    -0.51000
O1455       O  0.63774630  0.68419370  0.44247585    -0.74200
O1456       O  0.64312356  0.65435479  0.48231717    -0.81000
O1457       O  0.62900093  0.76986648  0.49885134    -0.82800
O1458       O  0.60916358  0.62897825  0.49560787    -0.78400
O1459       O  0.65532641  0.73882779  0.48119040    -0.90000
O1460       O  0.59889742  0.66719143  0.42968628    -0.76000
O1461       O  0.59518014  0.66963232  0.48097378    -0.85500
O1462       O  0.59748766  0.72232214  0.46144332    -0.85200
O1463       O  0.61535908  0.68641352  0.53069804    -0.71900
O1464       O  0.61274427  0.73425180  0.51391407    -0.84100
Zr1465     Zr  0.53320546  0.71096048  0.52417747     2.26400
Zr1466     Zr  0.58065874  0.65535470  0.52247236     2.06300
Zr1467     Zr  0.58076177  0.75717360  0.48879949     2.10000
Zr1468     Zr  0.56422553  0.68975867  0.45431900     1.78800
O1469       O  0.57491516  0.80220281  0.50335611    -0.92900
O1470       O  0.54940110  0.64614177  0.44143260    -0.40700
O1471       O  0.54798341  0.72423959  0.48141930    -0.77300
O1472       O  0.54699276  0.67559760  0.49644820    -0.96000
O1473       O  0.56664215  0.69100807  0.54874316    -0.89300
O1474       O  0.56530739  0.74429955  0.53148023    -0.92100
C1475       C  0.62399445  0.66874634  0.42792844     1.01600
C1476       C  0.65239078  0.76049177  0.49349704     1.14500
C1477       C  0.63095886  0.63238979  0.48364445     1.05300
O1478       O  0.55298233  0.61744749  0.51377906    -0.94300
O1479       O  0.55169747  0.65164819  0.55999743    -0.90000
O1480       O  0.51595065  0.67290836  0.54637179    -0.83200
C1481       C  0.52866856  0.66073967  0.56407303     1.12000
O1482       O  0.64056274  0.73337868  0.57633490    -0.96300
Zr1483     Zr  0.59842642  0.72277489  0.55667515     1.88900
O1484       O  0.52463033  0.72664678  0.56803795    -0.72900
O1485       O  0.60784290  0.62853379  0.55110837    -0.52200
O1486       O  0.61077704  0.69373306  0.59248336    -0.96900
O1487       O  0.60740898  0.76827080  0.56822765    -0.54100
O1488       O  0.56357963  0.73004074  0.58914425    -0.73400
C1489       C  0.53841917  0.73154774  0.58844577     0.98900
O1490       O  0.48731064  0.70368198  0.51335367    -0.62300
O1491       O  0.58765572  0.77938767  0.44716887    -0.57100
O1492       O  0.51198346  0.75165204  0.51712783    -0.93700
O1493       O  0.53113218  0.76284375  0.47939041    -0.92200
O1494       O  0.56391256  0.71889042  0.41642623    -0.92500
O1495       O  0.52192996  0.68810716  0.43219460    -0.91300
C1496       C  0.51016614  0.76014359  0.49394231     1.17800
H1497       H  0.60503731  0.72882663  0.44539769     0.33700
H1498       H  0.53260367  0.66358226  0.49394122     0.44500
H1499       H  0.55798176  0.75908207  0.54066089     0.38100
H1500       H  0.62957602  0.67800534  0.53983241     0.34600
H1501       H  0.56285123  0.63410043  0.44852011     0.26300
H1502       H  0.60155139  0.63228841  0.56901745     0.32300
H1503       H  0.60410969  0.67632725  0.58718772     0.38200
H1504       H  0.57764376  0.71193250  0.40471685     0.32600
H1505       H  0.57448359  0.79359018  0.44692313     0.31500
H1506       H  0.55587964  0.80542894  0.50181793     0.33200
H1507       H  0.59010646  0.77687994  0.56925966     0.32200
H1508       H  0.51737810  0.70652843  0.42824479     0.36200
H1509       H  0.48620289  0.68543649  0.50686937     0.28900
H1510       H  0.68414432  0.68822255  0.48704632     0.33100
H1511       H  0.65119712  0.71728406  0.57457724     0.36000
H1512       H  0.60462284  0.78853960  0.44929573     0.28600
H1513       H  0.47792053  0.70357639  0.53028767     0.41500
H1514       H  0.55701516  0.61250049  0.49549592     0.31500
H1515       H  0.53371125  0.64244678  0.45215558     0.39100
H1516       H  0.61568785  0.77592714  0.55246080     0.31000
H1517       H  0.60203280  0.61033249  0.54770263     0.31100
H1518       H  0.67434709  0.68122117  0.51528162     0.31300
Zr1519     Zr  0.11798314  0.82178137  0.51073123     2.17500
O1520       O  0.16377721  0.83454994  0.51647503    -0.51000
O1521       O  0.12507934  0.85055877  0.54851415    -0.74200
O1522       O  0.12761165  0.85878954  0.48307751    -0.81000
O1523       O  0.12907157  0.74732395  0.51860792    -0.82800
O1524       O  0.08942008  0.87996990  0.47931543    -0.78400
O1525       O  0.14923242  0.78608204  0.50968800    -0.90000
O1526       O  0.08543440  0.85944058  0.56578924    -0.76000
O1527       O  0.07981701  0.84780791  0.51265757    -0.85500
O1528       O  0.09243726  0.80142412  0.54420606    -0.85200
O1529       O  0.09990878  0.82011727  0.46686192    -0.71900
O1530       O  0.10612573  0.77915208  0.49637825    -0.84100
Zr1531     Zr  0.02496739  0.78110606  0.48428708     2.26400
Zr1532     Zr  0.05979554  0.84436520  0.47030937     2.06300
Zr1533     Zr  0.08047889  0.75794007  0.52866822     2.10000
Zr1534     Zr  0.05416020  0.82834741  0.54528515     1.78800
O1535       O  0.07608593  0.71040697  0.52797526    -0.92900
O1536       O  0.02922278  0.86902688  0.54385736    -0.40700
O1537       O  0.04355411  0.78618853  0.52760982    -0.77300
O1538       O  0.03211146  0.82457421  0.50279476    -0.96000
O1539       O  0.05213128  0.80153078  0.45300315    -0.89300
O1540       O  0.06318560  0.75448010  0.48451069    -0.92100
C1541       C  0.11027382  0.86357108  0.56409923     1.01600
C1542       C  0.14986857  0.76106697  0.51196340     1.14500
C1543       C  0.11429743  0.87989298  0.48179893     1.05300
O1544       O  0.03694688  0.88619730  0.47107827    -0.94300
O1545       O  0.01707071  0.84397872  0.44987439    -0.90000
O1546       O  0.99341420  0.80933043  0.46445878    -0.83200
C1547       C  0.99638922  0.82973158  0.45055181     1.12000
O1548       O  0.13571158  0.76429567  0.44287279    -0.96300
Zr1549     Zr  0.09067298  0.77591671  0.45282245     1.88900
O1550       O  0.02141051  0.75879141  0.44140025    -0.72900
O1551       O  0.07355521  0.85394764  0.42567459    -0.52200
O1552       O  0.10718733  0.79690532  0.41322418    -0.96900
O1553       O  0.09906591  0.72919518  0.44696356    -0.54100
O1554       O  0.05935355  0.76451310  0.41944823    -0.73400
C1555       C  0.03540077  0.75746912  0.42049557     0.98900
O1556       O  0.97934692  0.76648848  0.48701144    -0.62300
O1557       O  0.09513449  0.74935180  0.57326069    -0.57100
O1558       O  0.01148783  0.74403487  0.50980419    -0.93700
O1559       O  0.03274747  0.75455979  0.54601339    -0.92200
O1560       O  0.05747757  0.80543347  0.58707473    -0.92500
O1561       O  0.01748656  0.83195713  0.57553511    -0.91300
C1562       C  0.01081480  0.74835873  0.53414842     1.17800
H1563       H  0.10170110  0.80101889  0.56070008     0.33700
H1564       H  0.01568249  0.83381225  0.50369291     0.44500
H1565       H  0.05892666  0.73660282  0.47996321     0.38100
H1566       H  0.11131139  0.82782283  0.45382311     0.34600
H1567       H  0.04018424  0.88196965  0.55328090     0.26300
H1568       H  0.05746276  0.85202549  0.41501870     0.32300
H1569       H  0.09150636  0.80417498  0.40444779     0.38200
H1570       H  0.06788856  0.81729687  0.59837122     0.32600
H1571       H  0.09260302  0.73028166  0.57578621     0.31500
H1572       H  0.06124050  0.70666439  0.53984256     0.33200
H1573       H  0.08204717  0.72131625  0.44202721     0.32200
H1574       H  0.02329589  0.84442235  0.58922666     0.36200
H1575       H  0.96862521  0.78147020  0.49292446     0.28900
H1576       H  0.17070716  0.82421258  0.53137292     0.33100
H1577       H  0.13551057  0.75658676  0.42509065     0.36000
H1578       H  0.11436268  0.75167532  0.57262072     0.28600
H1579       H  0.97363393  0.76310523  0.46878243     0.41500
H1580       H  0.04332142  0.89574049  0.45544446     0.31500
H1581       H  0.02996264  0.87475861  0.52535643     0.39100
H1582       H  0.10277594  0.72238795  0.46475117     0.31000
H1583       H  0.07727139  0.87299089  0.42552249     0.31100
H1584       H  0.17327133  0.82819045  0.50084871     0.31300
C1585       C  0.18992681  0.76168186  0.48282745     0.23900
C1586       C  0.17614454  0.74946044  0.50372862    -0.24200
C1587       C  0.19023939  0.73096551  0.51864316     0.18800
C1588       C  0.21764587  0.72733011  0.51468079     0.23800
C1589       C  0.23174490  0.74187952  0.49563269    -0.24200
C1590       C  0.21688444  0.75773329  0.47877214     0.18700
F1591       F  0.22921891  0.77223303  0.46018680    -0.14100
F1592       F  0.17793575  0.77988564  0.46762750    -0.16500
F1593       F  0.23093222  0.71180381  0.53154502    -0.16500
F1594       F  0.17829082  0.71852574  0.53883749    -0.14100
C1595       C  0.43835841  0.77553874  0.50036603     0.23900
C1596       C  0.42644003  0.75235553  0.49102135    -0.24200
C1597       C  0.44246922  0.73529584  0.47640786     0.18800
C1598       C  0.46964872  0.74052734  0.47286350     0.23800
C1599       C  0.48204204  0.76252185  0.48453800    -0.24200
C1600       C  0.46546698  0.78048898  0.49727970     0.18700
F1601       F  0.47612215  0.80153979  0.50955812    -0.14100
F1602       F  0.42423282  0.79219902  0.51527511    -0.16500
F1603       F  0.48454865  0.72198515  0.46121221    -0.16500
F1604       F  0.43245665  0.71226547  0.46765402    -0.14100
C1605       C  0.93657269  0.74147894  0.54346309     0.23900
C1606       C  0.92820356  0.76785504  0.54129560    -0.24200
C1607       C  0.94788193  0.78706353  0.54448430     0.18800
C1608       C  0.97481064  0.78033521  0.54643696     0.23800
C1609       C  0.98350505  0.75405485  0.54502795    -0.24200
C1610       C  0.96362801  0.73470235  0.54451478     0.18700
F1611       F  0.97044967  0.70908329  0.54263839    -0.14100
F1612       F  0.91861235  0.72198562  0.54223938    -0.16500
F1613       F  0.99258841  0.79991336  0.54501672    -0.16500
F1614       F  0.94134400  0.81274178  0.54233363    -0.14100
C1615       C  0.72031215  0.79437986  0.49921625     0.23900
C1616       C  0.73312417  0.77828693  0.51795434    -0.24200
C1617       C  0.71693471  0.76050071  0.53169483     0.18800
C1618       C  0.69010311  0.75724003  0.52545441     0.23800
C1619       C  0.67775591  0.77156088  0.50519488    -0.24200
C1620       C  0.69324557  0.79088743  0.49273548     0.18700
F1621       F  0.68287291  0.80489736  0.47267799    -0.14100
F1622       F  0.73464450  0.81155846  0.48496860    -0.16500
F1623       F  0.67675233  0.73779406  0.53758211    -0.16500
F1624       F  0.72787221  0.74392740  0.54942268    -0.14100
C1625       C  0.00376100  0.71194607  0.37064331     0.23900
C1626       C  0.00708384  0.72607499  0.34705561    -0.24200
C1627       C  0.01790593  0.75145393  0.34840570     0.18800
C1628       C  0.02655370  0.76176186  0.37236759     0.23800
C1629       C  0.02365161  0.74744930  0.39578216    -0.24200
C1630       C  0.01161852  0.72271283  0.39476170     0.18700
F1631       F  0.00874434  0.70837431  0.41697473    -0.14100
F1632       F  0.99290545  0.68765353  0.37043449    -0.16500
F1633       F  0.03806697  0.78576690  0.37265740    -0.16500
F1634       F  0.02121517  0.76593779  0.32633518    -0.14100
C1635       C  0.93134547  0.75379782  0.34191348     0.23900
C1636       C  0.93065518  0.72658394  0.33710920    -0.24200
C1637       C  0.93310660  0.70918691  0.35843999     0.18800
C1638       C  0.93266733  0.71873921  0.38395929     0.23800
C1639       C  0.92915557  0.74558216  0.38842590    -0.24200
C1640       C  0.93136648  0.76315445  0.36753017     0.18700
F1641       F  0.92869391  0.78925511  0.37177244    -0.14100
F1642       F  0.92978053  0.77141789  0.32203268    -0.16500
F1643       F  0.93101235  0.70149644  0.40417941    -0.16500
F1644       F  0.93452418  0.68286647  0.35481532    -0.14100
C1645       C  0.01258725  0.33146054  0.25182865     0.23900
C1646       C  0.03263701  0.34143519  0.26815351    -0.24200
C1647       C  0.04272566  0.32371718  0.28702762     0.18800
C1648       C  0.03375964  0.29705434  0.28860236     0.23800
C1649       C  0.01450703  0.28695503  0.27124789    -0.24200
C1650       C  0.00342954  0.30532249  0.25363639     0.18700
F1651       F  0.98512273  0.29723851  0.23607906    -0.14100
F1652       F  0.00339876  0.34640873  0.23194327    -0.16500
F1653       F  0.04560982  0.28053593  0.30563657    -0.16500
F1654       F  0.06265311  0.33157649  0.30273640    -0.14100
C1655       C  0.05556719  0.54682495  0.22382966     0.23900
C1656       C  0.04048204  0.53717702  0.24501409    -0.24200
C1657       C  0.02398743  0.55562306  0.25745053     0.18800
C1658       C  0.02138745  0.58163861  0.24822795     0.23800
C1659       C  0.03556104  0.59118288  0.22655917    -0.24200
C1660       C  0.05286041  0.57317376  0.21446649     0.18700
F1661       F  0.06573573  0.58035927  0.19239032    -0.14100
F1662       F  0.07117444  0.53006730  0.21058225    -0.16500
F1663       F  0.00210691  0.59662256  0.25848097    -0.16500
F1664       F  0.00821943  0.54776413  0.27734629    -0.14100
C1665       C  0.90657570  0.88927092  0.37564103     0.23900
C1666       C  0.91017223  0.87835947  0.35038924    -0.24200
C1667       C  0.90050611  0.85282777  0.34594526     0.18800
C1668       C  0.88908530  0.83825012  0.36640299     0.23800
C1669       C  0.88757559  0.84851446  0.39193329    -0.24200
C1670       C  0.89599528  0.87429815  0.39621435     0.18700
F1671       F  0.89422197  0.88495085  0.42047711    -0.14100
F1672       F  0.91415766  0.91422742  0.38089206    -0.16500
F1673       F  0.87961057  0.81391213  0.36129898    -0.16500
F1674       F  0.90190519  0.84196555  0.32174776    -0.14100
C1675       C  0.02196259  0.04506213  0.26703578     0.23900
C1676       C  0.00213586  0.03452613  0.25054938    -0.24200
C1677       C  0.98248729  0.05275005  0.24280547     0.18800
C1678       C  0.98345612  0.07992575  0.25110536     0.23800
C1679       C  0.00248554  0.08899398  0.26958948    -0.24200
C1680       C  0.02016630  0.06974057  0.27850788     0.18700
F1681       F  0.03723540  0.07466850  0.29834815    -0.14100
F1682       F  0.04304712  0.03072937  0.27454783    -0.16500
F1683       F  0.96574631  0.09704741  0.24119557    -0.16500
F1684       F  0.96319751  0.04479966  0.22635530    -0.14100
C1685       C  0.98329541  0.79658201  0.20313156     0.23900
C1686       C  0.00695347  0.78553598  0.21262000    -0.24200
C1687       C  0.02539235  0.80347884  0.22290118     0.18800
C1688       C  0.01970388  0.83064014  0.22537073     0.23800
C1689       C  0.99499164  0.84107281  0.21866724    -0.24200
C1690       C  0.97721786  0.82362192  0.20655809     0.18700
F1691       F  0.95311671  0.83234766  0.19959024    -0.14100
F1692       F  0.96465849  0.78061701  0.19302307    -0.16500
F1693       F  0.03746635  0.84632079  0.23726646    -0.16500
F1694       F  0.04815752  0.79428941  0.23304144    -0.14100
C1695       C  0.97613239  0.81947443  0.40887611     0.23900
C1696       C  0.97642237  0.83550901  0.43122776    -0.24200
C1697       C  0.96734903  0.86117396  0.42963381     0.18800
C1698       C  0.96409143  0.87255772  0.40520111     0.23800
C1699       C  0.97036952  0.85819105  0.38246077    -0.24200
C1700       C  0.97360522  0.83096057  0.38422682     0.18700
F1701       F  0.97890483  0.81640479  0.36264236    -0.14100
F1702       F  0.98378330  0.79406156  0.41051799    -0.16500
F1703       F  0.95931910  0.89870026  0.40405649    -0.16500
F1704       F  0.96655021  0.87646100  0.45135109    -0.14100
C1705       C  0.13605896  0.01814950  0.23886188     0.23900
C1706       C  0.16083927  0.00819539  0.24556476    -0.24200
C1707       C  0.16221194  0.98598770  0.26194155     0.18800
C1708       C  0.13918767  0.97331899  0.27036575     0.23800
C1709       C  0.11441672  0.98321611  0.26334395    -0.24200
C1710       C  0.11319467  0.00611257  0.24798784     0.18700
F1711       F  0.08971421  0.01625049  0.24075173    -0.14100
F1712       F  0.13394729  0.03954464  0.22316559    -0.16500
F1713       F  0.14110327  0.95144774  0.28540035    -0.16500
F1714       F  0.18579879  0.97581487  0.26872905    -0.14100
C1715       C  0.20564952  0.13495518  0.28816452     0.23900
C1716       C  0.20989790  0.10787977  0.28638616    -0.24200
C1717       C  0.18881222  0.09063861  0.29078349     0.18800
C1718       C  0.16334337  0.10001953  0.28897413     0.23800
C1719       C  0.15919295  0.12674034  0.28422494    -0.24200
C1720       C  0.18015198  0.14443702  0.28706376     0.18700
F1721       F  0.17618058  0.17071368  0.28554570    -0.14100
F1722       F  0.22593325  0.15200085  0.28571680    -0.16500
F1723       F  0.14334298  0.08252791  0.28762350    -0.16500
F1724       F  0.19238076  0.06430687  0.29001967    -0.14100
C1725       C  0.15556788  0.92070688  0.58367241     0.23900
C1726       C  0.14902608  0.92572316  0.61010717    -0.24200
C1727       C  0.12818095  0.91076135  0.62082878     0.18800
C1728       C  0.11525760  0.89102956  0.60605772     0.23800
C1729       C  0.12286270  0.88526447  0.58014533    -0.24200
C1730       C  0.14292090  0.90082491  0.56918850     0.18700
F1731       F  0.15032411  0.89692985  0.54403846    -0.14100
F1732       F  0.17487543  0.93453066  0.57172419    -0.16500
F1733       F  0.09594211  0.87685501  0.61756494    -0.16500
F1734       F  0.12037707  0.91489558  0.64586138    -0.14100
C1735       C  0.26056967  0.88067095  0.59861360     0.23900
C1736       C  0.23474022  0.88232968  0.60765024    -0.24200
C1737       C  0.22126238  0.85951417  0.61526595     0.18800
C1738       C  0.23433278  0.83564225  0.61611620     0.23800
C1739       C  0.26080544  0.83457425  0.60931827    -0.24200
C1740       C  0.27374423  0.85704524  0.60019712     0.18700
F1741       F  0.29930536  0.85619507  0.59311091    -0.14100
F1742       F  0.27397640  0.90234615  0.59090728    -0.16500
F1743       F  0.22167946  0.81392253  0.62485615    -0.16500
F1744       F  0.19600635  0.86073519  0.62340583    -0.14100
C1745       C  0.26246328  0.86748101  0.50031694     0.23900
C1746       C  0.28199198  0.86894941  0.51976183    -0.24200
C1747       C  0.29077312  0.89394256  0.52763023     0.18800
C1748       C  0.28053094  0.91684865  0.51601625     0.23800
C1749       C  0.26173079  0.91525747  0.49579846    -0.24200
C1750       C  0.25257027  0.89027156  0.48844029     0.18700
F1751       F  0.23381181  0.88787966  0.46973410    -0.14100
F1752       F  0.25374436  0.84379575  0.49188542    -0.16500
F1753       F  0.28978061  0.94054407  0.52383585    -0.16500
F1754       F  0.30925109  0.89620444  0.54662589    -0.14100
C1755       C  0.15877410  0.13705044  0.38009056     0.23900
C1756       C  0.16378512  0.11021536  0.37569737    -0.24200
C1757       C  0.14760857  0.09701639  0.35766209     0.18800
C1758       C  0.12678289  0.10961128  0.34509014     0.23800
C1759       C  0.12244776  0.13676314  0.34807781    -0.24200
C1760       C  0.13888350  0.15036376  0.36586299     0.18700
F1761       F  0.13567845  0.17647420  0.36964646    -0.14100
F1762       F  0.17373955  0.15061750  0.39737288    -0.16500
F1763       F  0.11141433  0.09495194  0.32906839    -0.16500
F1764       F  0.15175929  0.07144619  0.35204018    -0.14100
C1765       C  0.30708803  0.02976162  0.31984224     0.23900
C1766       C  0.29626374  0.01261606  0.33883555    -0.24200
C1767       C  0.28951981  0.98736110  0.32951904     0.18800
C1768       C  0.29046962  0.98058827  0.30247026     0.23800
C1769       C  0.29918625  0.99837989  0.28301523    -0.24200
C1770       C  0.30883030  0.02268667  0.29270399     0.18700
F1771       F  0.31597490  0.04143999  0.27538226    -0.14100
F1772       F  0.31337313  0.05459604  0.32695990    -0.16500
F1773       F  0.27987581  0.95737515  0.29494855    -0.16500
F1774       F  0.27912685  0.96981394  0.34644581    -0.14100
C1775       C  0.26485643  0.05711732  0.54527701     0.23900
C1776       C  0.28321417  0.03940090  0.53452472    -0.24200
C1777       C  0.29580826  0.02254090  0.55265051     0.18800
C1778       C  0.28858429  0.02158463  0.57948608     0.23800
C1779       C  0.26796366  0.03700539  0.58951939    -0.24200
C1780       C  0.25696406  0.05555414  0.57205236     0.18700
F1781       F  0.23681495  0.07069495  0.58029097    -0.14100
F1782       F  0.25182040  0.07360393  0.52907189    -0.16500
F1783       F  0.29966419  0.00302308  0.59496390    -0.16500
F1784       F  0.31310755  0.00452314  0.54366060    -0.14100
C1785       C  0.16866801  0.92862974  0.49180180     0.23900
C1786       C  0.15492016  0.95247211  0.49333346    -0.24200
C1787       C  0.12754697  0.95230115  0.49101553     0.18800
C1788       C  0.11421829  0.92875802  0.48703765     0.23800
C1789       C  0.12816382  0.90505120  0.48453560    -0.24200
C1790       C  0.15557407  0.90537975  0.48691903     0.18700
F1791       F  0.17007167  0.88322797  0.48454209    -0.14100
F1792       F  0.19514806  0.92772127  0.49350973    -0.16500
F1793       F  0.08768896  0.92933393  0.48566019    -0.16500
F1794       F  0.11366979  0.97491479  0.49231236    -0.14100
C1795       C  0.11060726  0.02470366  0.37508740     0.23900
C1796       C  0.13435394  0.01285276  0.36776671    -0.24200
C1797       C  0.13412553  0.98882282  0.35447183     0.18800
C1798       C  0.11048995  0.97618531  0.34973533     0.23800
C1799       C  0.08691569  0.98796638  0.35722656    -0.24200
C1800       C  0.08695111  0.01246045  0.36940983     0.18700
F1801       F  0.06410321  0.02446431  0.37561869    -0.14100
F1802       F  0.11033919  0.04815374  0.38763696    -0.16500
F1803       F  0.11047406  0.95288904  0.33690180    -0.16500
F1804       F  0.15672735  0.97711012  0.34695100    -0.14100
C1805       C  0.25725516  0.97110739  0.04803167     0.23900
C1806       C  0.24073775  0.98881469  0.03406111    -0.24200
C1807       C  0.22828193  0.00797162  0.04953891     0.18800
C1808       C  0.23501465  0.01223650  0.07604044     0.23800
C1809       C  0.25426315  0.99719177  0.08927381    -0.24200
C1810       C  0.26399463  0.97527473  0.07518493     0.18700
F1811       F  0.28205582  0.95949920  0.08661354    -0.14100
F1812       F  0.26954452  0.95179529  0.03470606    -0.16500
F1813       F  0.22383815  0.03295158  0.08827400    -0.16500
F1814       F  0.21186912  0.02532618  0.03782600    -0.14100
C1815       C  0.22352552  0.01068998  0.80180188     0.23900
C1816       C  0.24128079  0.02197547  0.78329446    -0.24200
C1817       C  0.26502294  0.03125633  0.79383394     0.18800
C1818       C  0.27197638  0.02661606  0.82059042     0.23800
C1819       C  0.25531545  0.01290543  0.83841412    -0.24200
C1820       C  0.23031961  0.00633823  0.82860877     0.18700
F1821       F  0.21285075  0.99409445  0.84443907    -0.14100
F1822       F  0.19972991  0.00217119  0.79349242    -0.16500
F1823       F  0.29566614  0.03524608  0.82899136    -0.16500
F1824       F  0.28230559  0.04360272  0.77789521    -0.14100
C1825       C  0.84712913  0.61412282  0.14482035     0.23900
C1826       C  0.85339283  0.59191743  0.12988527    -0.24200
C1827       C  0.87995191  0.58500365  0.12727778     0.18800
C1828       C  0.89972847  0.59947588  0.13997074     0.23800
C1829       C  0.89350297  0.62160703  0.15522848    -0.24200
C1830       C  0.86690395  0.62898460  0.15702774     0.18700
F1831       F  0.85982539  0.65016219  0.17140320    -0.14100
F1832       F  0.82181341  0.62169569  0.14730378    -0.16500
F1833       F  0.92501659  0.59193400  0.13708237    -0.16500
F1834       F  0.88670943  0.56354654  0.11314366    -0.14100
C1835       C  0.87031681  0.46568548  0.16913189     0.23900
C1836       C  0.86402748  0.49193211  0.16485125    -0.24200
C1837       C  0.88257337  0.51167088  0.16903232     0.18800
C1838       C  0.90850499  0.50485973  0.17362671     0.23800
C1839       C  0.91557901  0.47821591  0.17434478    -0.24200
C1840       C  0.89599511  0.45876275  0.17380989     0.18700
F1841       F  0.90176648  0.43287415  0.17603964    -0.14100
F1842       F  0.85237030  0.44654371  0.16452104    -0.16500
F1843       F  0.92673020  0.52417081  0.17553595    -0.16500
F1844       F  0.87631661  0.53718336  0.16487157    -0.14100
C1845       C  0.75943150  0.65358979  0.51067586     0.23900
C1846       C  0.78567471  0.65365021  0.50205826    -0.24200
C1847       C  0.79911271  0.62953161  0.50085700     0.18800
C1848       C  0.78674782  0.60612511  0.50836842     0.23800
C1849       C  0.76090578  0.60635874  0.51755357    -0.24200
C1850       C  0.74733536  0.63024702  0.51856202     0.18700
F1851       F  0.72237598  0.63102420  0.52761193    -0.14100
F1852       F  0.74565225  0.67625484  0.51245917    -0.16500
F1853       F  0.80045683  0.58337375  0.50792441    -0.16500
F1854       F  0.82428350  0.62851791  0.49251136    -0.14100
C1855       C  0.63783573  0.56299399  0.46274619     0.23900
C1856       C  0.66463334  0.56032935  0.46770315    -0.24200
C1857       C  0.68078605  0.58260376  0.46593144     0.18800
C1858       C  0.66963256  0.60735078  0.46805641     0.23800
C1859       C  0.64241624  0.60946663  0.47078526    -0.24200
C1860       C  0.62653818  0.58771147  0.46464904     0.18700
F1861       F  0.60006948  0.58984923  0.46360362    -0.14100
F1862       F  0.62221366  0.54148061  0.46165585    -0.16500
F1863       F  0.68555667  0.62837525  0.47167777    -0.16500
F1864       F  0.70707240  0.58049500  0.46904332    -0.14100
C1865       C  0.64051419  0.60725305  0.38748596     0.23900
C1866       C  0.66680475  0.61159925  0.38059202    -0.24200
C1867       C  0.67807918  0.63592996  0.38711182     0.18800
C1868       C  0.66401534  0.65488371  0.40143141     0.23800
C1869       C  0.63796230  0.65025206  0.40943261    -0.24200
C1870       C  0.62622584  0.62631791  0.40150020     0.18700
F1871       F  0.60112867  0.62074166  0.40817364    -0.14100
F1872       F  0.62870621  0.58430297  0.38102156    -0.16500
F1873       F  0.67602202  0.67785183  0.40742274    -0.16500
F1874       F  0.70301537  0.64129101  0.37974396    -0.14100
C1875       C  0.87153798  0.49855070  0.26121034     0.23900
C1876       C  0.86130668  0.48742104  0.28437494    -0.24200
C1877       C  0.87711572  0.46890043  0.29764147     0.18800
C1878       C  0.90162347  0.46111314  0.28755577     0.23800
C1879       C  0.91177485  0.47223839  0.26436519    -0.24200
C1880       C  0.89660713  0.49166824  0.25185486     0.18700
F1881       F  0.90583256  0.50384158  0.23018562    -0.14100
F1882       F  0.85748837  0.51658463  0.24769956    -0.16500
F1883       F  0.91575979  0.44298743  0.30094714    -0.16500
F1884       F  0.86871958  0.45784937  0.32031686    -0.14100
C1885       C  0.71675813  0.52548200  0.22080114     0.23900
C1886       C  0.71784234  0.49873001  0.22788695    -0.24200
C1887       C  0.71711968  0.48062546  0.20679919     0.18800
C1888       C  0.71599222  0.48914666  0.18006941     0.23800
C1889       C  0.71729083  0.51599998  0.17313261    -0.24200
C1890       C  0.71675277  0.53391521  0.19429673     0.18700
F1891       F  0.71866380  0.56000526  0.18942203    -0.14100
F1892       F  0.72006575  0.54382349  0.23965749    -0.16500
F1893       F  0.71601608  0.47095452  0.16084013    -0.16500
F1894       F  0.71939525  0.45461975  0.21185642    -0.14100
C1895       C  0.72025577  0.46400458  0.44305665     0.23900
C1896       C  0.73873621  0.46367136  0.42256528    -0.24200
C1897       C  0.76503095  0.45925408  0.43026269     0.18800
C1898       C  0.77283732  0.45895520  0.45717243     0.23800
C1899       C  0.75440135  0.46149707  0.47772054    -0.24200
C1900       C  0.72790489  0.46293958  0.46977825     0.18700
F1901       F  0.70944117  0.46770984  0.48794850    -0.14100
F1902       F  0.69473779  0.46869376  0.43733503    -0.16500
F1903       F  0.79874844  0.45835435  0.46296034    -0.16500
F1904       F  0.78370823  0.45765581  0.41159690    -0.14100
C1905       C  0.75959368  0.65931788  0.42745327     0.23900
C1906       C  0.78551247  0.66784423  0.42339305    -0.24200
C1907       C  0.80551427  0.64901482  0.42061482     0.18800
C1908       C  0.79918883  0.62281282  0.41785969     0.23800
C1909       C  0.77296585  0.61524675  0.41685817    -0.24200
C1910       C  0.75336064  0.63290525  0.42413918     0.18700
F1911       F  0.72794242  0.62520760  0.42474432    -0.14100
F1912       F  0.74012451  0.67654939  0.43284524    -0.16500
F1913       F  0.81837682  0.60538571  0.41203970    -0.16500
F1914       F  0.83117838  0.65584891  0.41924289    -0.14100
C1915       C  0.89099392  0.57078815  0.27420198     0.23900
C1916       C  0.89344842  0.58125785  0.24905890    -0.24200
C1917       C  0.87180475  0.58168993  0.23215431     0.18800
C1918       C  0.84692980  0.57647013  0.24198278     0.23800
C1919       C  0.84395676  0.57068834  0.26869654    -0.24200
C1920       C  0.86625043  0.56586903  0.28421274     0.18700
F1921       F  0.86407289  0.55815272  0.30957685    -0.14100
F1922       F  0.91205437  0.56968698  0.29042867    -0.16500
F1923       F  0.82578934  0.57985473  0.22620111    -0.16500
F1924       F  0.87424586  0.59133037  0.20749988    -0.14100
C1925       C  0.77539612  0.53680056  0.94355008     0.23900
C1926       C  0.75731237  0.53273720  0.92294445    -0.24200
C1927       C  0.73051472  0.53255408  0.93026021     0.18800
C1928       C  0.72263746  0.53317536  0.95715606     0.23800
C1929       C  0.74110094  0.53562585  0.97778509    -0.24200
C1930       C  0.76743368  0.53890820  0.97006296     0.18700
F1931       F  0.78627793  0.54009833  0.98872882    -0.14100
F1932       F  0.80140899  0.53650296  0.93829624    -0.16500
F1933       F  0.69700665  0.52954703  0.96306734    -0.16500
F1934       F  0.71191051  0.52936181  0.91162938    -0.14100
C1935       C  0.75831770  0.53084557  0.70979500     0.23900
C1936       C  0.77103522  0.51281916  0.72635903    -0.24200
C1937       C  0.78151112  0.49021354  0.71388934     0.18800
C1938       C  0.77782182  0.48515605  0.68658555     0.23800
C1939       C  0.76304298  0.50226945  0.67064222    -0.24200
C1940       C  0.75428486  0.52564825  0.68281513     0.18700
F1941       F  0.73958023  0.54280590  0.66898668    -0.14100
F1942       F  0.74693012  0.55234551  0.72043064    -0.16500
F1943       F  0.78632083  0.46211217  0.67651508    -0.16500
F1944       F  0.79249995  0.47118212  0.72877776    -0.14100
C1945       C  0.23706916  0.13044625  0.02568254     0.23900
C1946       C  0.24467809  0.15579911  0.01773851    -0.24200
C1947       C  0.26600587  0.15817072  0.00042003     0.18800
C1948       C  0.27871632  0.13587245  0.99054737     0.23800
C1949       C  0.27093890  0.11050549  0.99824488    -0.24200
C1950       C  0.25022234  0.10812726  0.01633219     0.18700
F1951       F  0.24167646  0.08407652  0.02390555    -0.14100
F1952       F  0.21661397  0.12719606  0.04228852    -0.16500
F1953       F  0.29849088  0.13915405  0.97313638    -0.16500
F1954       F  0.27368205  0.18212596  0.99181426    -0.14100
C1955       C  0.10126603  0.37046945  0.07735377     0.23900
C1956       C  0.12455108  0.35638576  0.08208977    -0.24200
C1957       C  0.13466438  0.35657174  0.10781962     0.18800
C1958       C  0.12142930  0.36931869  0.12839798     0.23800
C1959       C  0.09819239  0.38340674  0.12378649    -0.24200
C1960       C  0.08863022  0.38430561  0.09777739     0.18700
F1961       F  0.06622560  0.39751708  0.09234627    -0.14100
F1962       F  0.09071580  0.37088677  0.05295017    -0.16500
F1963       F  0.13138184  0.36772875  0.15299893    -0.16500
F1964       F  0.15677591  0.34297614  0.11343821    -0.14100
C1965       C  0.27269368  0.16787486  0.11314926     0.23900
C1966       C  0.26278146  0.16254980  0.13810146    -0.24200
C1967       C  0.24922462  0.18235150  0.15177240     0.18800
C1968       C  0.24341351  0.20602333  0.13962968     0.23800
C1969       C  0.25087535  0.21025501  0.11363107    -0.24200
C1970       C  0.26713947  0.19171937  0.10109016     0.18700
F1971       F  0.27573231  0.19545790  0.07622330    -0.14100
F1972       F  0.28692098  0.14969432  0.10003537    -0.16500
F1973       F  0.22897868  0.22406925  0.15271402    -0.16500
F1974       F  0.23969581  0.17815798  0.17620361    -0.14100
C1975       C  0.10244424  0.27165808  0.16048978     0.23900
C1976       C  0.09959697  0.24437000  0.16254875    -0.24200
C1977       C  0.09358036  0.22949336  0.14020300     0.18800
C1978       C  0.09364541  0.24128373  0.11569788     0.23800
C1979       C  0.10076230  0.26773378  0.11346374    -0.24200
C1980       C  0.10313082  0.28326994  0.13592429     0.18700
F1981       F  0.10887641  0.30914756  0.13387715    -0.14100
F1982       F  0.10646908  0.28676405  0.18199366    -0.16500
F1983       F  0.08981941  0.22619083  0.09414387    -0.16500
F1984       F  0.08817809  0.20349095  0.14201383    -0.14100
C1985       C  0.36376732  0.15300369  0.10477705     0.23900
C1986       C  0.38614599  0.14268486  0.09256611    -0.24200
C1987       C  0.39503676  0.11773304  0.10071666     0.18800
C1988       C  0.38079974  0.10278444  0.11911536     0.23800
C1989       C  0.35794322  0.11282219  0.13062563    -0.24200
C1990       C  0.35017970  0.13845632  0.12392511     0.18700
F1991       F  0.32892492  0.14919864  0.13556161    -0.14100
F1992       F  0.35509721  0.17727556  0.09824417    -0.16500
F1993       F  0.38897903  0.07821778  0.12517957    -0.16500
F1994       F  0.41672146  0.10712075  0.08970037    -0.14100
C1995       C  0.32761783  0.26625257  0.98390386     0.23900
C1996       C  0.33800086  0.24135665  0.97792225    -0.24200
C1997       C  0.32126627  0.22432802  0.96348340     0.18800
C1998       C  0.29477430  0.23069272  0.95787695     0.23800
C1999       C  0.28336905  0.25426247  0.96657091    -0.24200
C2000       C  0.30092785  0.27251140  0.97836901     0.18700
F2001       F  0.29122602  0.29535660  0.98780414    -0.14100
F2002       F  0.34245555  0.28373853  0.99735161    -0.16500
F2003       F  0.27929452  0.21220935  0.94663182    -0.16500
F2004       F  0.33014800  0.20051535  0.95578310    -0.14100
C2005       C  0.40139029  0.03791969  0.03917784     0.23900
C2006       C  0.37435998  0.03827448  0.04371011    -0.24200
C2007       C  0.36386443  0.06167376  0.05354402     0.18800
C2008       C  0.37495653  0.08519351  0.04513021     0.23800
C2009       C  0.39886871  0.08476605  0.03140615    -0.24200
C2010       C  0.41342353  0.06120815  0.03135375     0.18700
F2011       F  0.43795742  0.06001868  0.02135781    -0.14100
F2012       F  0.41394887  0.01480875  0.03536021    -0.16500
F2013       F  0.36144583  0.10777696  0.04866922    -0.16500
F2014       F  0.33956772  0.06194970  0.06425270    -0.14100
C2015       C  0.71402835  0.35850077  0.02647683     0.23900
C2016       C  0.72772131  0.34801987  0.00500402    -0.24200
C2017       C  0.74964304  0.36180303  0.99552944     0.18800
C2018       C  0.75651693  0.38632408  0.00611380     0.23800
C2019       C  0.74277338  0.39671953  0.02770171    -0.24200
C2020       C  0.72160938  0.38230990  0.03782630     0.18700
F2021       F  0.70752486  0.39174544  0.05823075    -0.14100
F2022       F  0.69332301  0.34542226  0.03682027    -0.16500
F2023       F  0.77673367  0.39975359  0.99529000    -0.16500
F2024       F  0.76421835  0.35182025  0.97579332    -0.14100
C2025       C  0.57339279  0.26595444  0.99708872     0.23900
C2026       C  0.58450307  0.24513538  0.01164720    -0.24200
C2027       C  0.56843476  0.23402885  0.03133110     0.18800
C2028       C  0.54137013  0.24125182  0.03352776     0.23800
C2029       C  0.52963494  0.25934604  0.01590798    -0.24200
C2030       C  0.54695774  0.27332145  0.99964023     0.18700
F2031       F  0.53721993  0.29143663  0.98274663    -0.14100
F2032       F  0.58726093  0.27690915  0.97735506    -0.16500
F2033       F  0.52590718  0.22785104  0.05035735    -0.16500
F2034       F  0.57772010  0.21396551  0.04609406    -0.14100
C2035       C  0.74542816  0.34565732  0.92307183     0.23900
C2036       C  0.75735803  0.32367241  0.91193553    -0.24200
C2037       C  0.78127146  0.32592606  0.89893788     0.18800
C2038       C  0.79102675  0.35082655  0.89354789     0.23800
C2039       C  0.77734613  0.37302025  0.90244376    -0.24200
C2040       C  0.75612032  0.37021098  0.91939630     0.18700
F2041       F  0.74303024  0.39141066  0.92866919    -0.14100
F2042       F  0.72241413  0.34354319  0.93608945    -0.16500
F2043       F  0.81173391  0.35337981  0.87711628    -0.16500
F2044       F  0.79334486  0.30447389  0.88899088    -0.14100
C2045       C  0.85602976  0.37167767  0.91781055     0.23900
C2046       C  0.87739677  0.35934624  0.90543542    -0.24200
C2047       C  0.88626538  0.37042904  0.88167697     0.18800
C2048       C  0.87328619  0.39222804  0.87021341     0.23800
C2049       C  0.85209265  0.40468980  0.88294317    -0.24200
C2050       C  0.84455728  0.39455526  0.90753164     0.18700
F2051       F  0.82513089  0.40606936  0.92141895    -0.14100
F2052       F  0.84606763  0.36164425  0.94027571    -0.16500
F2053       F  0.88166480  0.40130211  0.84668990    -0.16500
F2054       F  0.90689623  0.35962542  0.86899530    -0.14100
C2055       C  0.97336347  0.21627601  0.10896792     0.23900
C2056       C  0.98440326  0.23633165  0.09351781    -0.24200
C2057       C  0.00703347  0.24906044  0.10299786     0.18800
C2058       C  0.01816633  0.24215060  0.12727341     0.23800
C2059       C  0.00775557  0.22139115  0.14217305    -0.24200
C2060       C  0.98506093  0.20868716  0.13272993     0.18700
F2061       F  0.97371158  0.18921093  0.14688505    -0.14100
F2062       F  0.95144815  0.20355872  0.10085091    -0.16500
F2063       F  0.03937595  0.25558460  0.13596246    -0.16500
F2064       F  0.01820196  0.26861922  0.08895678    -0.14100
C2065       C  0.04181464  0.24980771  0.94410090     0.23900
C2066       C  0.03065420  0.22817907  0.95752369    -0.24200
C2067       C  0.04872835  0.21099957  0.96968019     0.18800
C2068       C  0.07605092  0.21645768  0.97055672     0.23800
C2069       C  0.08687178  0.23960756  0.95967943    -0.24200
C2070       C  0.06916251  0.25569562  0.94560093     0.18700
F2071       F  0.07785270  0.27870323  0.93546650    -0.14100
F2072       F  0.02577520  0.26722322  0.93214625    -0.16500
F2073       F  0.09161790  0.20040158  0.98490144    -0.16500
F2074       F  0.03956360  0.19001355  0.98322029    -0.14100
C2075       C  0.81580382  0.20332526  0.97246002     0.23900
C2076       C  0.83410277  0.22065567  0.98422166    -0.24200
C2077       C  0.82498175  0.23460227  0.00627523     0.18800
C2078       C  0.79880535  0.23266371  0.01529647     0.23800
C2079       C  0.77978715  0.21696734  0.00249126    -0.24200
C2080       C  0.78939455  0.20108331  0.98186513     0.18700
F2081       F  0.77250067  0.18526181  0.96903293    -0.14100
F2082       F  0.82271131  0.19014738  0.95050288    -0.16500
F2083       F  0.79130868  0.24860332  0.03516719    -0.16500
F2084       F  0.84077768  0.25278576  0.01747147    -0.14100
C2085       C  0.83625546  0.37357485  0.01702877     0.23900
C2086       C  0.85531738  0.37432565  0.99744056    -0.24200
C2087       C  0.86154084  0.39814233  0.98498255     0.18800
C2088       C  0.85006282  0.42134284  0.99339673     0.23800
C2089       C  0.83351306  0.42084417  0.01513540    -0.24200
C2090       C  0.82585740  0.39688461  0.02631528     0.18700
F2091       F  0.80917393  0.39623651  0.04697280    -0.14100
F2092       F  0.82994253  0.35069668  0.02909729    -0.16500
F2093       F  0.85700519  0.44441164  0.98206741    -0.16500
F2094       F  0.88003459  0.39909318  0.96595322    -0.14100
C2095       C  0.02514864  0.33413833  0.11165311     0.23900
C2096       C  0.00515116  0.33817417  0.13002048    -0.24200
C2097       C  0.97967598  0.32996178  0.12483625     0.18800
C2098       C  0.97321209  0.32167361  0.09997801     0.23800
C2099       C  0.99227230  0.32173812  0.08015051    -0.24200
C2100       C  0.01864540  0.32601644  0.08641475     0.18700
F2101       F  0.03753220  0.32431243  0.06783770    -0.14100
F2102       F  0.05020701  0.34103823  0.11719484    -0.16500
F2103       F  0.94790445  0.31530775  0.09485232    -0.16500
F2104       F  0.96048762  0.33317479  0.14290959    -0.14100
C2105       C  0.63383953  0.51920676  0.79403705     0.23900
C2106       C  0.64501928  0.49696523  0.78207914    -0.24200
C2107       C  0.63304505  0.48734443  0.75909383     0.18800
C2108       C  0.61023005  0.49928686  0.74884697     0.23800
C2109       C  0.59953675  0.52195864  0.76055503    -0.24200
C2110       C  0.61187875  0.53171478  0.78323043     0.18700
F2111       F  0.60235319  0.55327976  0.79546306    -0.14100
F2112       F  0.64466709  0.52954698  0.81601140    -0.16500
F2113       F  0.59900682  0.48898428  0.72709668    -0.16500
F2114       F  0.64320663  0.46622347  0.74665524    -0.14100
C2115       C  0.40317998  0.64870588  0.60908471     0.23900
C2116       C  0.37805408  0.65919401  0.61345910    -0.24200
C2117       C  0.36595829  0.65367281  0.63780658     0.18800
C2118       C  0.37944048  0.64013304  0.65776352     0.23800
C2119       C  0.40504453  0.63112596  0.65377619    -0.24200
C2120       C  0.41625988  0.63452140  0.62884321     0.18700
F2121       F  0.44019073  0.62432757  0.62367511    -0.14100
F2122       F  0.41519035  0.65215491  0.58564875    -0.16500
F2123       F  0.36754170  0.63609014  0.68114965    -0.16500
F2124       F  0.34142089  0.66238103  0.64290026    -0.14100
C2125       C  0.55610943  0.51797468  0.61807158     0.23900
C2126       C  0.55434996  0.51049689  0.64452544    -0.24200
C2127       C  0.57432584  0.49499405  0.65555091     0.18800
C2128       C  0.59765706  0.49154135  0.64210541     0.23800
C2129       C  0.60085199  0.50276300  0.61723256    -0.24200
C2130       C  0.57923907  0.51407884  0.60447216     0.18700
F2131       F  0.58116852  0.52379136  0.57977969    -0.14100
F2132       F  0.53652637  0.53146914  0.60614183    -0.16500
F2133       F  0.61754872  0.47848658  0.65399399    -0.16500
F2134       F  0.57256652  0.48558568  0.68034416    -0.14100
C2135       C  0.49265758  0.66825964  0.59656071     0.23900
C2136       C  0.51885376  0.66159301  0.59117548    -0.24200
C2137       C  0.53664706  0.65944085  0.61224444     0.18800
C2138       C  0.52786853  0.66126497  0.63790819     0.23800
C2139       C  0.50116792  0.66365708  0.64296409    -0.24200
C2140       C  0.48402657  0.66953180  0.62241963     0.18700
F2141       F  0.45842283  0.67404123  0.62742604    -0.14100
F2142       F  0.47509254  0.67216018  0.57697294    -0.16500
F2143       F  0.54502854  0.65747540  0.65789021    -0.16500
F2144       F  0.56248671  0.65491415  0.60825579    -0.14100
C2145       C  0.62316640  0.38009545  0.64683455     0.23900
C2146       C  0.59661170  0.38763932  0.64719529    -0.24200
C2147       C  0.58915446  0.40945022  0.63198393     0.18800
C2148       C  0.60778505  0.42312174  0.61667848     0.23800
C2149       C  0.63457959  0.41640684  0.61757848    -0.24200
C2150       C  0.64197424  0.39480106  0.63301587     0.18700
F2151       F  0.66756498  0.38796586  0.63485844    -0.14100
F2152       F  0.63116213  0.35893766  0.66084175    -0.16500
F2153       F  0.59975604  0.44351463  0.60162957    -0.16500
F2154       F  0.56381966  0.41737516  0.63173811    -0.14100
C2155       C  0.52023578  0.25332991  0.89240457     0.23900
C2156       C  0.50396812  0.23130499  0.88842479    -0.24200
C2157       C  0.50078082  0.22198172  0.86273921     0.18800
C2158       C  0.51262380  0.23489733  0.84146129     0.23800
C2159       C  0.52745662  0.25802561  0.84519375    -0.24200
C2160       C  0.53156500  0.26665811  0.87110393     0.18700
F2161       F  0.54636196  0.28825189  0.87590872    -0.14100
F2162       F  0.52419506  0.26281630  0.91692159    -0.16500
F2163       F  0.50856272  0.22526066  0.81706268    -0.16500
F2164       F  0.48607556  0.20030761  0.85820180    -0.14100
C2165       C  0.46232013  0.43574389  0.74883572     0.23900
C2166       C  0.47741812  0.41872042  0.76461708    -0.24200
C2167       C  0.48873950  0.42999577  0.78733261     0.18800
C2168       C  0.48729746  0.45731886  0.79257212     0.23800
C2169       C  0.47396028  0.47471046  0.77566192    -0.24200
C2170       C  0.46040447  0.46303637  0.75440826     0.18700
F2171       F  0.44824061  0.47865878  0.73671340    -0.14100
F2172       F  0.45189632  0.42660426  0.72616209    -0.16500
F2173       F  0.50158625  0.46721400  0.81270249    -0.16500
F2174       F  0.50415084  0.41497240  0.80291890    -0.14100
C2175       C  0.63686554  0.41004653  0.76560059     0.23900
C2176       C  0.63554661  0.39926225  0.74036447    -0.24200
C2177       C  0.65873211  0.39205248  0.72744253     0.18800
C2178       C  0.68264483  0.39345971  0.74042413     0.23800
C2179       C  0.68353007  0.40196330  0.76643123    -0.24200
C2180       C  0.66071875  0.41103604  0.77867420     0.18700
F2181       F  0.66156620  0.42097953  0.80330361    -0.14100
F2182       F  0.61493782  0.41776307  0.77840397    -0.16500
F2183       F  0.70473307  0.38554684  0.72802928    -0.16500
F2184       F  0.65802866  0.38244073  0.70269345    -0.14100
C2185       C  0.61818499  0.28655948  0.81411586     0.23900
C2186       C  0.61203663  0.26566731  0.79729338    -0.24200
C2187       C  0.60355495  0.24175448  0.80830573     0.18800
C2188       C  0.60396021  0.23822453  0.83559820     0.23800
C2189       C  0.61223923  0.25875311  0.85190806    -0.24200
C2190       C  0.61666199  0.28356791  0.84097057     0.18700
F2191       F  0.62363697  0.30409090  0.85644452    -0.14100
F2192       F  0.62692755  0.30978668  0.80479143    -0.16500
F2193       F  0.59862925  0.21428399  0.84582674    -0.16500
F2194       F  0.59712011  0.22120478  0.79275167    -0.14100
C2195       C  0.60884593  0.13975498  0.84490109     0.23900
C2196       C  0.59802124  0.11590579  0.85373239    -0.24200
C2197       C  0.60446544  0.10744395  0.87931372     0.18800
C2198       C  0.61922223  0.12357171  0.89630492     0.23800
C2199       C  0.62929673  0.14773550  0.88758254    -0.24200
C2200       C  0.62486041  0.15502373  0.86138533     0.18700
F2201       F  0.63541718  0.17755680  0.85199992    -0.14100
F2202       F  0.60370291  0.14848175  0.82031031    -0.16500
F2203       F  0.62305758  0.11587535  0.92146231    -0.16500
F2204       F  0.59484753  0.08442553  0.88858428    -0.14100
C2205       C  0.36283140  0.01155114  0.78518986     0.23900
C2206       C  0.38807903  0.00527759  0.77620444    -0.24200
C2207       C  0.39034903  0.98619353  0.75635603     0.18800
C2208       C  0.36805765  0.97544228  0.74434868     0.23800
C2209       C  0.34270612  0.98274802  0.75231914    -0.24200
C2210       C  0.34050580  0.99984200  0.77389065     0.18700
F2211       F  0.31669132  0.00595478  0.78355664    -0.14100
F2212       F  0.35971768  0.02906233  0.80490893    -0.16500
F2213       F  0.37138900  0.95806548  0.72452854    -0.16500
F2214       F  0.41424569  0.97881320  0.74748843    -0.14100
C2215       C  0.50283528  0.17767057  0.73024067     0.23900
C2216       C  0.49311274  0.16827606  0.75425248    -0.24200
C2217       C  0.48016956  0.18711043  0.77031813     0.18800
C2218       C  0.47879331  0.21424369  0.76359479     0.23800
C2219       C  0.49047735  0.22399921  0.74059304    -0.24200
C2220       C  0.50171458  0.20479645  0.72365627     0.18700
F2221       F  0.51338647  0.21255843  0.70107863    -0.14100
F2222       F  0.51529077  0.16095546  0.71383831    -0.16500
F2223       F  0.46773837  0.23122295  0.78071597    -0.16500
F2224       F  0.46940583  0.17937218  0.79334335    -0.14100
C2225       C  0.54593690  0.10279174  0.95770305     0.23900
C2226       C  0.54715363  0.13022919  0.95780855    -0.24200
C2227       C  0.55754578  0.14256062  0.93549443     0.18800
C2228       C  0.55341310  0.13071104  0.91131980     0.23800
C2229       C  0.54307191  0.10517143  0.91045430    -0.24200
C2230       C  0.54314974  0.09010436  0.93370645     0.18700
F2231       F  0.53703804  0.06420822  0.93366602    -0.14100
F2232       F  0.54032222  0.08953716  0.98007504    -0.16500
F2233       F  0.55685604  0.14507256  0.88919536    -0.16500
F2234       F  0.56416789  0.16831348  0.93605209    -0.14100
C2235       C  0.45952163  0.96420869  0.89991788     0.23900
C2236       C  0.45851218  0.96251477  0.87256340    -0.24200
C2237       C  0.43687495  0.94967162  0.86119247     0.18800
C2238       C  0.41318770  0.95004711  0.87453211     0.23800
C2239       C  0.41238785  0.96065274  0.89986552    -0.24200
C2240       C  0.43609963  0.96380584  0.91373548     0.18700
F2241       F  0.43651876  0.97052635  0.93942130    -0.14100
F2242       F  0.48170858  0.97220047  0.91223664    -0.16500
F2243       F  0.39091958  0.94345343  0.86157599    -0.16500
F2244       F  0.43687990  0.94293355  0.83547164    -0.14100
C2245       C  0.36143226  0.87752854  0.84524671     0.23900
C2246       C  0.38515073  0.86729492  0.85471714    -0.24200
C2247       C  0.39274241  0.87369405  0.88044161     0.18800
C2248       C  0.37723505  0.89065007  0.89593992     0.23800
C2249       C  0.35386456  0.90178917  0.88594641    -0.24200
C2250       C  0.34618964  0.89467180  0.86037210     0.18700
F2251       F  0.32398962  0.90464670  0.84968660    -0.14100
F2252       F  0.35312437  0.87104213  0.82089470    -0.16500
F2253       F  0.38605382  0.89756257  0.92004341    -0.16500
F2254       F  0.41573480  0.86456050  0.89012654    -0.14100
C2255       C  0.53097869  0.73170247  0.63756315     0.23900
C2256       C  0.52397323  0.74023806  0.61226334    -0.24200
C2257       C  0.50254016  0.75736818  0.60960954     0.18800
C2258       C  0.48888697  0.76625716  0.63161621     0.23800
C2259       C  0.49594199  0.75794025  0.65696854    -0.24200
C2260       C  0.51674631  0.74000254  0.65962987     0.18700
F2261       F  0.52410206  0.73142038  0.68370771    -0.14100
F2262       F  0.55166523  0.71542088  0.64097938    -0.16500
F2263       F  0.46872011  0.78319391  0.62805400    -0.16500
F2264       F  0.49548494  0.76656723  0.58565352    -0.14100
C2265       C  0.47588094  0.93075968  0.73250644     0.23900
C2266       C  0.49277299  0.91652144  0.74939700    -0.24200
C2267       C  0.51587720  0.92968896  0.75734321     0.18800
C2268       C  0.52000697  0.95691816  0.75139442     0.23800
C2269       C  0.50108846  0.97184856  0.73738912    -0.24200
C2270       C  0.48006653  0.95746473  0.72655050     0.18700
F2271       F  0.46137390  0.97029962  0.71262045    -0.14100
F2272       F  0.45391885  0.91926397  0.72281967    -0.16500
F2273       F  0.54041708  0.96946368  0.76286376    -0.16500
F2274       F  0.53312513  0.91713784  0.77317846    -0.14100
C2275       C  0.48034562  0.71648812  0.80674460     0.23900
C2276       C  0.50535511  0.72621886  0.79964361    -0.24200
C2277       C  0.52478860  0.70711344  0.79493336     0.18800
C2278       C  0.51900822  0.67983612  0.79529999     0.23800
C2279       C  0.49319569  0.67034365  0.79855126    -0.24200
C2280       C  0.47422197  0.68924711  0.80550709     0.18700
F2281       F  0.44876269  0.68185335  0.80730339    -0.14100
F2282       F  0.46045707  0.73359495  0.81037780    -0.16500
F2283       F  0.53823186  0.66275252  0.78899568    -0.16500
F2284       F  0.54888840  0.71491895  0.78696215    -0.14100
C2285       C  0.31058540  0.84356028  0.75100244     0.23900
C2286       C  0.33282195  0.85781042  0.75939605    -0.24200
C2287       C  0.32951008  0.88402636  0.76744165     0.18800
C2288       C  0.30531559  0.89626092  0.76485107     0.23800
C2289       C  0.28421059  0.88291233  0.75328463    -0.24200
C2290       C  0.28652502  0.85609144  0.74799290     0.18700
F2291       F  0.26601952  0.84262036  0.73768157    -0.14100
F2292       F  0.31232209  0.81802702  0.74377541    -0.16500
F2293       F  0.30362462  0.92218883  0.77049500    -0.16500
F2294       F  0.34996264  0.89859836  0.77622473    -0.14100
C2295       C  0.37703867  0.70536902  0.70025686     0.23900
C2296       C  0.40367758  0.70928873  0.70521406    -0.24200
C2297       C  0.42134150  0.70794216  0.68415907     0.18800
C2298       C  0.41214995  0.71253817  0.65888811     0.23800
C2299       C  0.38531293  0.71652737  0.65495060    -0.24200
C2300       C  0.36766195  0.70972235  0.67506312     0.18700
F2301       F  0.34137383  0.71047178  0.67113511    -0.14100
F2302       F  0.35982484  0.70414729  0.72043934    -0.16500
F2303       F  0.42962751  0.71733110  0.63949740    -0.16500
F2304       F  0.44751434  0.70937942  0.68845564    -0.14100
loop_ 
_geom_bond_atom_site_label_1 
_geom_bond_atom_site_label_2 
_geom_bond_distance 
_geom_bond_site_symmetry_2 
_ccdc_geom_bond_type 
Zr1           O2   2.449       .  S
Zr1           O3   2.462       .  S
Zr1           O4   2.408       .  S
Zr1           O7   2.389       .  S
Zr1           O9   2.361       .  S
Zr1          O10   2.383       .  S
Zr1          O11   2.438       .  S
Zr1          O12   2.421       .  S
O2           H58   0.987       .  S
O2           H66   0.990       .  S
O3           C23   1.286       .  A
O4           C25   1.271       .  A
O5          Zr15   2.603       .  S
O5           C24   1.310       .  A
O6          Zr14   2.408       .  S
O6           C25   1.281       .  A
O7           C24   1.259       .  A
O8          Zr16   2.416       .  S
O8           C23   1.279       .  A
O9          Zr14   2.398       .  S
O9          Zr16   2.369       .  S
O10         Zr15   2.426       .  S
O10         Zr16   2.401       .  S
O10          H45   0.966       .  S
O11         Zr14   2.395       .  S
O11         Zr31   2.443       .  S
O11          H48   0.966       .  S
O12         Zr15   2.374       .  S
O12         Zr31   2.392       .  S
Zr13         O38   2.439       .  S
Zr13         O32   2.428       .  S
Zr13         O40   2.441       .  S
Zr13         O28   2.439       .  S
Zr13         O19   2.370       .  S
Zr13         O20   2.410       .  S
Zr13         O21   2.373       .  S
Zr13         O22   2.395       .  S
Zr14         O33   2.439       .  S
Zr14         O26   2.435       .  S
Zr14         O27   2.401       .  S
Zr14         O20   2.402       .  S
Zr14         O21   2.396       .  S
Zr15         O17   2.434       .  S
Zr15         O39   2.435       .  S
Zr15         O41   2.584       .  S
Zr15         O19   2.378       .  S
Zr15         O22   2.426       .  S
Zr16         O42   2.437       .  S
Zr16         O43   2.438       .  S
Zr16         O18   2.440       .  S
Zr16         O19   2.364       .  S
Zr16         O20   2.410       .  S
O17          H54   0.990       .  S
O18          H49   0.990       .  S
O18          H63   0.990       .  S
O20          H46   0.967       .  S
O21         Zr31   2.350       .  S
O22         Zr31   2.395       .  S
O22          H47   0.965       .  S
C23        C2259   1.493       .  S
C24        C2276   1.528       .  S
C25        C2296   1.458       .  S
O26          H62   0.990       .  S
O27          C29   1.279       .  A
O28          C29   1.285       .  A
C29        C2286   1.484       .  S
O30         Zr31   2.440       .  S
O30          H59   0.991       .  S
Zr31         O34   2.438       .  S
Zr31         O35   2.438       .  S
Zr31         O36   2.485       .  S
O32          C37   1.281       .  A
O33          H50   0.990       .  S
O33          H65   0.990       .  S
O34          H51   0.990       .  S
O35          H55   0.990       .  S
O35          H64   0.989       .  S
O36          C37   1.291       .  A
C37        C2246   1.500       .  S
O38          H57   0.990       .  S
O38          H61   0.990       .  S
O39          H53   0.990       .  S
O39          H60   0.990       .  S
O40          C44   1.288       .  A
O41          C44   1.315       .  A
O42          H52   0.990       .  S
O43          H56   0.990       .  S
C44        C2266   1.541       .  S
Zr67         O68   2.435   1_545  S
Zr67         O69   2.423       .  S
Zr67         O70   2.370   1_545  S
Zr67         O73   2.352       .  S
Zr67         O75   2.357       .  S
Zr67         O76   2.386       .  S
Zr67         O77   2.402       .  S
Zr67         O78   2.416       .  S
O68         H124   0.991       .  S
O68         H132   0.990       .  S
O69          C89   1.282       .  A
O70          C91   1.272       .  A
O71         Zr81   2.615       .  S
O71          C90   1.312       .  A
O72         Zr80   2.442       .  S
O72          C91   1.283   1_545  A
O73          C90   1.255       .  A
O74         Zr82   2.475       .  S
O74          C89   1.292       .  A
O75         Zr80   2.378       .  S
O75         Zr82   2.372       .  S
O76         Zr81   2.407       .  S
O76         Zr82   2.380       .  S
O76         H111   0.966       .  S
O77         Zr80   2.397       .  S
O77         Zr97   2.431       .  S
O77         H114   0.964       .  S
O78         Zr81   2.392       .  S
O78         Zr97   2.397       .  S
Zr79        O104   2.433       .  S
Zr79         O98   2.440       .  S
Zr79        O106   2.422       .  S
Zr79         O94   2.452       .  S
Zr79         O85   2.400       .  S
Zr79         O86   2.419       .  S
Zr79         O87   2.349       .  S
Zr79         O88   2.397       .  S
Zr80         O99   2.444       .  S
Zr80         O92   2.437       .  S
Zr80         O93   2.410       .  S
Zr80         O86   2.407       .  S
Zr80         O87   2.372       .  S
Zr81         O83   2.435       .  S
Zr81        O105   2.434       .  S
Zr81        O107   2.595       .  S
Zr81         O85   2.397       .  S
Zr81         O88   2.415       .  S
Zr82        O108   2.435       .  S
Zr82        O109   2.441       .  S
Zr82         O84   2.440       .  S
Zr82         O85   2.396       .  S
Zr82         O86   2.429       .  S
O83         H120   0.990       .  S
O84         H115   0.990       .  S
O84         H129   0.990       .  S
O86         H112   0.966       .  S
O87         Zr97   2.332       .  S
O88         Zr97   2.393       .  S
O88         H113   0.966       .  S
C89        C2206   1.500       .  S
C90        C2269   1.531   1_545  S
C91        C2236   1.472       .  S
O92         H128   0.990       .  S
O93          C95   1.279       .  A
O94          C95   1.288       .  A
C95        C2229   1.472       .  S
O96         Zr97   2.436       .  S
O96         H125   0.990   1_545  S
Zr97        O100   2.436       .  S
Zr97        O101   2.438       .  S
Zr97        O102   2.469       .  S
O98         C103   1.284       .  A
O99         H116   0.990       .  S
O99         H131   0.990       .  S
O100        H117   0.990       .  S
O101        H121   0.990       .  S
O101        H130   0.990       .  S
O102        C103   1.288       .  A
C103       C2196   1.504       .  S
O104        H123   0.990       .  S
O104        H127   0.991       .  S
O105        H119   0.990       .  S
O105        H126   0.990       .  S
O106        C110   1.284       .  A
O107        C110   1.319       .  A
O108        H118   0.990       .  S
O109        H122   0.989       .  S
C110       C2216   1.544       .  S
Zr133       O134   2.438       .  S
Zr133       O135   2.452       .  S
Zr133       O136   2.410       .  S
Zr133       O139   2.374       .  S
Zr133       O141   2.377       .  S
Zr133       O142   2.404       .  S
Zr133       O143   2.419       .  S
Zr133       O144   2.413       .  S
O134        H190   0.989       .  S
O134        H198   0.990       .  S
O135        C155   1.287       .  A
O136        C157   1.269       .  A
O137       Zr147   2.622       .  S
O137        C156   1.316       .  A
O138       Zr146   2.430       .  S
O138        C157   1.275       .  A
O139        C156   1.263       .  A
O140       Zr148   2.462       .  S
O140        C155   1.289       .  A
O141       Zr146   2.405       .  S
O141       Zr148   2.363       .  S
O142       Zr147   2.399       .  S
O142       Zr148   2.379       .  S
O142        H177   0.964       .  S
O143       Zr146   2.401       .  S
O143       Zr163   2.423       .  S
O143        H180   0.966       .  S
O144       Zr147   2.396       .  S
O144       Zr163   2.395       .  S
Zr145       O170   2.444       .  S
Zr145       O164   2.487       .  S
Zr145       O172   2.406       .  S
Zr145       O160   2.407       .  S
Zr145       O151   2.410       .  S
Zr145       O152   2.456       .  S
Zr145       O153   2.365       .  S
Zr145       O154   2.405       .  S
Zr146       O165   2.434       .  S
Zr146       O158   2.438       .  S
Zr146       O159   2.414       .  S
Zr146       O152   2.422       .  S
Zr146       O153   2.370       .  S
Zr147       O149   2.434       .  S
Zr147       O171   2.435       .  S
Zr147       O173   2.605       .  S
Zr147       O151   2.381       .  S
Zr147       O154   2.441       .  S
Zr148       O174   2.438       .  S
Zr148       O175   2.439       .  S
Zr148       O150   2.438       .  S
Zr148       O151   2.379       .  S
Zr148       O152   2.430       .  S
O149        H186   0.990       .  S
O150        H181   0.989       .  S
O150        H195   0.988       .  S
O152        H178   0.962       .  S
O153       Zr163   2.344       .  S
O154       Zr163   2.407       .  S
O154        H179   0.967       .  S
C155       C2159   1.504       .  S
C156       C2219   1.542       .  S
C157       C2186   1.480       .  S
O158        H194   0.989       .  S
O159        C161   1.270       .  A
O160        C161   1.272       .  A
C161       C2176   1.460       .  S
O162       Zr163   2.436       .  S
O162        H191   0.990       .  S
Zr163       O166   2.436       .  S
Zr163       O167   2.440       .  S
Zr163       O168   2.453       .  S
O164        C169   1.290       .  A
O165        H182   0.990       .  S
O165        H197   0.990       .  S
O166        H183   0.990       .  S
O167        H187   0.990       .  S
O167        H196   0.990       .  S
O168        C169   1.286       .  A
C169       C2146   1.503       .  S
O170        H189   0.990       .  S
O170        H193   0.991       .  S
O171        H185   0.990       .  S
O171        H192   0.990       .  S
O172        C176   1.278       .  A
O173        C176   1.320       .  A
O174        H184   0.990       .  S
O175        H188   0.991       .  S
C176       C2166   1.526       .  S
Zr199       O200   2.439       .  S
Zr199       O201   2.462       .  S
Zr199       O202   2.402       .  S
Zr199       O205   2.378       .  S
Zr199       O207   2.365       .  S
Zr199       O208   2.387       .  S
Zr199       O209   2.415       .  S
Zr199       O210   2.415       .  S
O200        H256   0.990       .  S
O200        H264   0.990       .  S
O201        C221   1.288       .  A
O202        C223   1.278       .  A
O203       Zr213   2.601       .  S
O203        C222   1.316       .  A
O204       Zr212   2.396       .  S
O204        C223   1.279       .  A
O205        C222   1.268       .  A
O206       Zr214   2.455       .  S
O206        C221   1.288       .  A
O207       Zr212   2.391       .  S
O207       Zr214   2.360       .  S
O208       Zr213   2.405       .  S
O208       Zr214   2.382       .  S
O208        H243   0.965       .  S
O209       Zr212   2.399       .  S
O209       Zr229   2.426       .  S
O209        H246   0.966       .  S
O210       Zr213   2.390       .  S
O210       Zr229   2.400       .  S
Zr211       O236   2.432       .  S
Zr211       O230   2.485       .  S
Zr211       O238   2.396       .  S
Zr211       O226   2.407       .  S
Zr211       O217   2.398       .  S
Zr211       O218   2.444       .  S
Zr211       O219   2.351       .  S
Zr211       O220   2.392       .  S
Zr212       O231   2.436       .  S
Zr212       O224   2.432       .  S
Zr212       O225   2.433       .  S
Zr212       O218   2.390       .  S
Zr212       O219   2.354       .  S
Zr213       O215   2.434       .  S
Zr213       O237   2.434       .  S
Zr213       O239   2.616       .  S
Zr213       O217   2.364       .  S
Zr213       O220   2.419       .  S
Zr214       O240   2.434       .  S
Zr214       O241   2.436       .  S
Zr214       O216   2.438       .  S
Zr214       O217   2.382       .  S
Zr214       O218   2.420       .  S
O215        H252   0.990       .  S
O216        H247   0.990       .  S
O216        H261   0.990       .  S
O218        H244   0.963       .  S
O219       Zr229   2.339       .  S
O220       Zr229   2.395       .  S
O220        H245   0.966       .  S
C221       C2109   1.508       .  S
C222       C2169   1.525       .  S
C223       C2126   1.468       .  S
O224        H260   0.989       .  S
O225        C227   1.278       .  A
O226        C227   1.276       .  A
C227       C2139   1.449       .  S
O228       Zr229   2.435       .  S
O228        H257   0.990       .  S
Zr229       O232   2.435       .  S
Zr229       O233   2.443       .  S
Zr229       O234   2.464       .  S
O230        C235   1.292       .  A
O231        H248   0.990       .  S
O231        H263   0.990       .  S
O232        H249   0.990       .  S
O233        H253   0.990       .  S
O233        H262   0.990       .  S
O234        C235   1.288       .  A
C235       C2119   1.496       .  S
O236        H255   0.987       .  S
O236        H259   0.990       .  S
O237        H251   0.990       .  S
O237        H258   0.990       .  S
O238        C242   1.279       .  A
O239        C242   1.324       .  A
O240        H250   0.990       .  S
O241        H254   0.990       .  S
C242       C2279   1.524       .  S
Zr265       O266   2.438   1_654  S
Zr265       O267   2.452       .  S
Zr265       O268   2.400       .  S
Zr265       O271   2.382   1_654  S
Zr265       O273   2.350       .  S
Zr265       O274   2.389       .  S
Zr265       O275   2.416   1_554  S
Zr265       O276   2.413   1_554  S
O266        H322   0.990   1_556  S
O266        H330   0.989       .  S
O267        C287   1.287       .  A
O268        C289   1.276       .  A
O269       Zr279   2.621       .  S
O269        C288   1.319   1_655  A
O270       Zr278   2.404       .  S
O270        C289   1.281       .  A
O271        C288   1.268       .  A
O272       Zr280   2.445       .  S
O272        C287   1.285       .  A
O273       Zr278   2.371       .  S
O273       Zr280   2.336       .  S
O274       Zr279   2.414   1_554  S
O274       Zr280   2.393       .  S
O274        H309   0.967       .  S
O275       Zr278   2.384   1_556  S
O275       Zr295   2.431       .  S
O275        H312   0.964       .  S
O276       Zr279   2.392       .  S
O276       Zr295   2.405       .  S
Zr277       O302   2.441       .  S
Zr277       O296   2.457       .  S
Zr277       O304   2.432       .  S
Zr277       O292   2.424       .  S
Zr277       O283   2.388       .  S
Zr277       O284   2.422   1_556  S
Zr277       O285   2.357       .  S
Zr277       O286   2.402       .  S
Zr278       O297   2.439       .  S
Zr278       O290   2.437       .  S
Zr278       O291   2.394   1_554  S
Zr278       O284   2.416       .  S
Zr278       O285   2.376   1_554  S
Zr279       O281   2.435       .  S
Zr279       O303   2.435       .  S
Zr279       O305   2.617       .  S
Zr279       O283   2.377       .  S
Zr279       O286   2.438       .  S
Zr280       O306   2.437       .  S
Zr280       O307   2.438       .  S
Zr280       O282   2.438       .  S
Zr280       O283   2.360   1_554  S
Zr280       O284   2.434       .  S
O281        H318   0.990       .  S
O282        H313   0.990       .  S
O282        H327   0.990       .  S
O284        H310   0.965       .  S
O285       Zr295   2.351       .  S
O286       Zr295   2.405       .  S
O286        H311   0.965       .  S
C287       C2056   1.500       .  S
C288       C2066   1.537       .  S
C289       C2099   1.449       .  S
O290        H326   0.990       .  S
O291        C293   1.274       .  A
O292        C293   1.279       .  A
C293       C2086   1.452       .  S
O294       Zr295   2.436       .  S
O294        H323   0.990       .  S
Zr295       O298   2.437       .  S
Zr295       O299   2.440       .  S
Zr295       O300   2.476       .  S
O296        C301   1.288       .  A
O297        H314   0.990       .  S
O297        H329   0.990       .  S
O298        H315   0.990       .  S
O299        H319   0.990       .  S
O299        H328   0.990       .  S
O300        C301   1.290       .  A
C301       C2046   1.518       .  S
O302        H321   0.990       .  S
O302        H325   0.990       .  S
O303        H317   0.990       .  S
O303        H324   0.990       .  S
O304        C308   1.279       .  A
O305        C308   1.321       .  A
O306        H316   0.990       .  S
O307        H320   0.991       .  S
C308       C2076   1.540       .  S
Zr331       O332   2.438       .  S
Zr331       O333   2.463       .  S
Zr331       O334   2.385       .  S
Zr331       O337   2.376   1_556  S
Zr331       O339   2.360       .  S
Zr331       O340   2.382       .  S
Zr331       O341   2.425       .  S
Zr331       O342   2.424       .  S
O332        H388   0.989       .  S
O332        H396   0.988       .  S
O333        C353   1.287       .  A
O334        C355   1.265       .  A
O335       Zr345   2.629   1_554  S
O335        C354   1.316       .  A
O336       Zr344   2.409       .  S
O336        C355   1.277       .  A
O337        C354   1.259       .  A
O338       Zr346   2.418       .  S
O338        C353   1.281       .  A
O339       Zr344   2.385       .  S
O339       Zr346   2.350       .  S
O340       Zr345   2.413       .  S
O340       Zr346   2.399       .  S
O340        H375   0.966   1_556  S
O341       Zr344   2.378       .  S
O341       Zr361   2.429       .  S
O341        H378   0.966       .  S
O342       Zr345   2.384       .  S
O342       Zr361   2.405       .  S
Zr343       O368   2.442       .  S
Zr343       O362   2.446       .  S
Zr343       O370   2.437       .  S
Zr343       O358   2.462       .  S
Zr343       O349   2.378       .  S
Zr343       O350   2.418       .  S
Zr343       O351   2.376       .  S
Zr343       O352   2.407       .  S
Zr344       O363   2.437       .  S
Zr344       O356   2.436       .  S
Zr344       O357   2.360       .  S
Zr344       O350   2.410       .  S
Zr344       O351   2.393       .  S
Zr345       O347   2.434   1_556  S
Zr345       O369   2.436   1_556  S
Zr345       O371   2.601   1_556  S
Zr345       O349   2.382       .  S
Zr345       O352   2.436       .  S
Zr346       O372   2.438   1_556  S
Zr346       O373   2.437       .  S
Zr346       O348   2.439       .  S
Zr346       O349   2.361       .  S
Zr346       O350   2.417       .  S
O347        H384   0.990       .  S
O348        H379   0.989       .  S
O348        H393   0.990       .  S
O350        H376   0.965       .  S
O351       Zr361   2.363       .  S
O352       Zr361   2.394       .  S
O352        H377   0.966       .  S
C353       C2016   1.493   1_556  S
C354       C2079   1.544       .  S
C355       C2036   1.439       .  S
O356        H392   0.990       .  S
O357        C359   1.272       .  A
O358        C359   1.284       .  A
C359       C2189   1.466       .  S
O360       Zr361   2.441       .  S
O360        H389   0.990       .  S
Zr361       O364   2.434       .  S
Zr361       O365   2.438       .  S
Zr361       O366   2.465       .  S
O362        C367   1.283       .  A
O363        H380   0.990       .  S
O363        H395   0.989       .  S
O364        H381   0.991       .  S
O365        H385   0.990       .  S
O365        H394   0.990       .  S
O366        C367   1.286       .  A
C367       C2199   1.497       .  S
O368        H387   0.991       .  S
O368        H391   0.990       .  S
O369        H383   0.990       .  S
O369        H390   0.990       .  S
O370        C374   1.286   1_556  A
O371        C374   1.319       .  A
O372        H382   0.989       .  S
O373        H386   0.991       .  S
C374       C2026   1.533       .  S
Zr397       O398   2.428       .  S
Zr397       O399   2.430       .  S
Zr397       O400   2.377       .  S
Zr397       O403   2.374       .  S
Zr397       O405   2.359       .  S
Zr397       O406   2.380       .  S
Zr397       O407   2.406   1_556  S
Zr397       O408   2.413   1_556  S
O398        H454   0.987       .  S
O398        H462   0.988   1_556  S
O399        C419   1.281       .  A
O400        C421   1.273       .  A
O401       Zr411   2.596       .  S
O401        C420   1.308       .  A
O402       Zr410   2.433       .  S
O402        C421   1.283       .  A
O403        C420   1.259   1_556  A
O404       Zr412   2.469       .  S
O404        C419   1.290       .  A
O405       Zr410   2.389       .  S
O405       Zr412   2.367       .  S
O406       Zr411   2.417   1_556  S
O406       Zr412   2.385       .  S
O406        H441   0.964       .  S
O407       Zr410   2.396   1_554  S
O407       Zr427   2.416       .  S
O407        H444   0.966       .  S
O408       Zr411   2.395       .  S
O408       Zr427   2.386       .  S
Zr409       O434   2.439   1_554  S
Zr409       O428   2.463       .  S
Zr409       O436   2.440   1_554  S
Zr409       O424   2.443       .  S
Zr409       O415   2.390   1_554  S
Zr409       O416   2.427   1_554  S
Zr409       O417   2.352       .  S
Zr409       O418   2.399       .  S
Zr410       O429   2.442       .  S
Zr410       O422   2.436       .  S
Zr410       O423   2.418   1_556  S
Zr410       O416   2.405       .  S
Zr410       O417   2.371   1_556  S
Zr411       O413   2.435       .  S
Zr411       O435   2.436   1_554  S
Zr411       O437   2.580   1_554  S
Zr411       O415   2.390   1_554  S
Zr411       O418   2.420       .  S
Zr412       O438   2.435       .  S
Zr412       O439   2.434       .  S
Zr412       O414   2.438       .  S
Zr412       O415   2.393       .  S
Zr412       O416   2.434       .  S
O413        H450   0.990       .  S
O414        H445   0.990       .  S
O414        H459   0.990       .  S
O416        H442   0.964       .  S
O417       Zr427   2.329       .  S
O418       Zr427   2.403       .  S
O418        H443   0.966       .  S
C419       C2156   1.498       .  S
C420       C2029   1.524       .  S
C421       C2226   1.472       .  S
O422        H458   0.990       .  S
O423        C425   1.280       .  A
O424        C425   1.286       .  A
C425       C2009   1.476       .  S
O426       Zr427   2.433       .  S
O426        H455   0.991       .  S
Zr427       O430   2.437       .  S
Zr427       O431   2.435       .  S
Zr427       O432   2.453       .  S
O428        C433   1.291       .  A
O429        H446   0.990       .  S
O429        H461   0.991   1_556  S
O430        H447   0.990       .  S
O431        H451   0.990       .  S
O431        H460   0.990       .  S
O432        C433   1.286       .  A
C433       C1986   1.503       .  S
O434        H453   0.990       .  S
O434        H457   0.990   1_556  S
O435        H449   0.990       .  S
O435        H456   0.990       .  S
O436        C440   1.288       .  A
O437        C440   1.315       .  A
O438        H448   0.990       .  S
O439        H452   0.990       .  S
C440       C1996   1.543       .  S
Zr463       O464   2.439       .  S
Zr463       O465   2.485       .  S
Zr463       O466   2.389       .  S
Zr463       O469   2.399   1_554  S
Zr463       O472   2.403       .  S
Zr463       O473   2.450       .  S
Zr463       O474   2.405       .  S
Zr463       O471   2.247       .  S
O464        H520   0.990       .  S
O464        H528   0.990       .  S
O465        C485   1.290       .  A
O466        C487   1.273       .  A
O467       Zr477   2.618       .  S
O467        C486   1.323       .  A
O468       Zr476   2.429       .  S
O468        C487   1.277       .  A
O469        C486   1.277       .  A
O470       Zr478   2.463       .  S
O470        C485   1.289       .  A
O471       Zr476   2.279       .  S
O471       Zr478   2.244       .  S
O472       Zr477   2.443   1_554  S
O472       Zr478   2.404       .  S
O472        H507   0.965   1_554  S
O473       Zr476   2.410       .  S
O473       Zr493   2.418       .  S
O473        H510   0.960       .  S
O474       Zr477   2.384   1_554  S
O474       Zr493   2.388       .  S
Zr475       O500   2.441       .  S
Zr475       O494   2.455       .  S
Zr475       O502   2.314       .  S
Zr475       O490   2.374       .  S
Zr475       O481   2.407       .  S
Zr475       O482   2.396       .  S
Zr475       O483   2.357       .  S
Zr475       O484   2.383       .  S
Zr476       O495   2.436       .  S
Zr476       O488   2.436       .  S
Zr476       O489   2.449       .  S
Zr476       O482   2.390       .  S
Zr476       O483   2.378       .  S
Zr477       O479   2.435       .  S
Zr477       O501   2.433       .  S
Zr477       O503   2.631       .  S
Zr477       O481   2.405   1_556  S
Zr477       O484   2.382   1_556  S
Zr478       O504   2.438       .  S
Zr478       O505   2.434       .  S
Zr478       O480   2.436       .  S
Zr478       O481   2.403       .  S
Zr478       O482   2.421       .  S
O479        H516   0.990       .  S
O480        H511   0.991       .  S
O480        H525   0.990       .  S
O482        H508   0.966       .  S
O483       Zr493   2.361       .  S
O484       Zr493   2.376       .  S
O484        H509   0.965   1_554  S
C485       C1956   1.511       .  S
C486       C2069   1.533       .  S
C487       C1979   1.448       .  S
O488        H524   0.990       .  S
O489        C491   1.288       .  A
O490        C491   1.271       .  A
C491       C1969   1.469       .  S
O492       Zr493   2.434       .  S
O492        H521   0.990       .  S
Zr493       O496   2.434       .  S
Zr493       O497   2.437   1_554  S
Zr493       O498   2.453       .  S
O494        C499   1.289       .  A
O495        H512   0.990       .  S
O495        H527   0.990       .  S
O496        H513   0.990       .  S
O497        H517   0.990       .  S
O497        H526   0.990       .  S
O498        C499   1.288       .  A
C499       C1946   1.499       .  S
O500        H519   0.990       .  S
O500        H523   0.990       .  S
O501        H515   0.990       .  S
O501        H522   0.990       .  S
O502        C506   1.261   1_554  A
O503        C506   1.326       .  A
O504        H514   0.990       .  S
O505        H518   0.990   1_554  S
C506       C1999   1.518       .  S
Zr529       O530   2.440       .  S
Zr529       O531   2.468       .  S
Zr529       O532   2.393       .  S
Zr529       O535   2.437       .  S
Zr529       O537   2.358       .  S
Zr529       O538   2.401       .  S
Zr529       O539   2.430       .  S
Zr529       O540   2.388       .  S
O530        H586   0.990       .  S
O530        H594   0.990       .  S
O531        C551   1.292       .  A
O532        C553   1.276       .  A
O533       Zr543   2.595       .  S
O533        C552   1.314       .  A
O534       Zr542   2.413       .  S
O534        C553   1.275       .  A
O535        C552   1.281       .  A
O536       Zr544   2.476       .  S
O536        C551   1.290       .  A
O537       Zr542   2.370       .  S
O537       Zr544   2.322       .  S
O538       Zr543   2.428       .  S
O538       Zr544   2.400       .  S
O538        H573   0.962       .  S
O539       Zr542   2.408       .  S
O539       Zr559   2.417       .  S
O539        H576   0.965       .  S
O540       Zr543   2.383       .  S
O540       Zr559   2.367       .  S
Zr541       O566   2.442       .  S
Zr541       O560   2.476       .  S
Zr541       O568   2.368       .  S
Zr541       O556   2.407       .  S
Zr541       O547   2.422       .  S
Zr541       O548   2.430       .  S
Zr541       O549   2.361       .  S
Zr541       O550   2.384       .  S
Zr542       O561   2.437       .  S
Zr542       O554   2.436       .  S
Zr542       O555   2.417       .  S
Zr542       O548   2.405       .  S
Zr542       O549   2.400       .  S
Zr543       O545   2.435       .  S
Zr543       O567   2.434       .  S
Zr543       O569   2.614       .  S
Zr543       O547   2.386       .  S
Zr543       O550   2.403       .  S
Zr544       O570   2.439       .  S
Zr544       O571   2.434       .  S
Zr544       O546   2.436       .  S
Zr544       O547   2.403       .  S
Zr544       O548   2.433       .  S
O545        H582   0.990       .  S
O546        H577   0.991       .  S
O546        H591   0.991       .  S
O548        H574   0.966       .  S
O549       Zr559   2.350       .  S
O550       Zr559   2.393       .  S
O550        H575   0.965       .  S
C551       C2049   1.519       .  S
C552       C1926   1.542       .  S
C553       C2039   1.442       .  S
O554        H590   0.990       .  S
O555        C557   1.277       .  A
O556        C557   1.267       .  A
C557       C2179   1.452       .  S
O558       Zr559   2.435       .  S
O558        H587   0.990       .  S
Zr559       O562   2.436       .  S
Zr559       O563   2.434       .  S
Zr559       O564   2.435       .  S
O560        C565   1.290       .  A
O561        H578   0.990       .  S
O561        H593   0.990       .  S
O562        H579   0.990       .  S
O563        H583   0.990       .  S
O563        H592   0.990       .  S
O564        C565   1.284       .  A
C565       C2106   1.506       .  S
O566        H585   0.990       .  S
O566        H589   0.991       .  S
O567        H581   0.990       .  S
O567        H588   0.990       .  S
O568        C572   1.263       .  A
O569        C572   1.317       .  A
O570        H580   0.990       .  S
O571        H584   0.990       .  S
C572       C1936   1.526       .  S
Zr595       O596   2.437       .  S
Zr595       O597   2.460       .  S
Zr595       O598   2.401       .  S
Zr595       O601   2.407       .  S
Zr595       O603   2.368       .  S
Zr595       O604   2.390       .  S
Zr595       O605   2.430       .  S
Zr595       O606   2.384       .  S
O596        H652   0.989       .  S
O596        H660   0.991       .  S
O597        C617   1.284       .  A
O598        C619   1.275       .  A
O599       Zr609   2.625       .  S
O599        C618   1.325       .  A
O600       Zr608   2.411       .  S
O600        C619   1.282       .  A
O601        C618   1.279       .  A
O602       Zr610   2.470       .  S
O602        C617   1.287       .  A
O603       Zr608   2.387       .  S
O603       Zr610   2.355       .  S
O604       Zr609   2.424       .  S
O604       Zr610   2.396       .  S
O604        H639   0.966       .  S
O605       Zr608   2.407       .  S
O605       Zr625   2.422       .  S
O605        H642   0.964       .  S
O606       Zr609   2.353       .  S
O606       Zr625   2.369       .  S
Zr607       O632   2.450       .  S
Zr607       O626   2.489       .  S
Zr607       O634   2.405       .  S
Zr607       O622   2.403       .  S
Zr607       O614   2.435       .  S
Zr607       O615   2.359       .  S
Zr607       O616   2.387       .  S
Zr607       O613   2.335       .  S
Zr608       O627   2.442       .  S
Zr608       O620   2.435       .  S
Zr608       O621   2.417       .  S
Zr608       O614   2.406       .  S
Zr608       O615   2.387       .  S
Zr609       O611   2.433       .  S
Zr609       O633   2.437       .  S
Zr609       O635   2.597       .  S
Zr609       O616   2.423       .  S
Zr609       O613   2.296       .  S
Zr610       O636   2.441       .  S
Zr610       O637   2.440       .  S
Zr610       O612   2.440       .  S
Zr610       O614   2.430       .  S
Zr610       O613   2.333       .  S
O611        H648   0.990       .  S
O612        H643   0.990       .  S
O612        H657   0.990       .  S
O614        H640   0.964       .  S
O615       Zr625   2.336       .  S
O616       Zr625   2.409       .  S
O616        H641   0.967       .  S
C617       C1866   1.503       .  S
C618       C1896   1.527       .  S
C619       C1909   1.444       .  S
O620        H656   0.990       .  S
O621        C623   1.279       .  A
O622        C623   1.271       .  A
C623       C1919   1.461       .  S
O624       Zr625   2.435       .  S
O624        H653   0.990       .  S
Zr625       O628   2.437       .  S
Zr625       O629   2.437       .  S
Zr625       O630   2.436       .  S
O626        C631   1.293       .  A
O627        H644   0.990       .  S
O627        H659   0.990       .  S
O628        H645   0.990       .  S
O629        H649   0.990       .  S
O629        H658   0.990       .  S
O630        C631   1.283       .  A
C631       C1876   1.518       .  S
O632        H651   0.985       .  S
O632        H655   0.991       .  S
O633        H647   0.990       .  S
O633        H654   0.990       .  S
O634        C638   1.268       .  A
O635        C638   1.312       .  A
O636        H646   0.989       .  S
O637        H650   0.991       .  S
C638       C1886   1.537       .  S
Zr661       O662   2.441       .  S
Zr661       O663   2.443       .  S
Zr661       O664   2.424       .  S
Zr661       O667   2.439       .  S
Zr661       O669   2.374       .  S
Zr661       O670   2.395       .  S
Zr661       O671   2.421       .  S
Zr661       O672   2.378       .  S
O662        H718   0.990       .  S
O662        H726   0.990       .  S
O663        C683   1.283       .  A
O664        C685   1.283       .  A
O665       Zr675   2.601       .  S
O665        C684   1.319       .  A
O666       Zr674   2.394       .  S
O666        C685   1.276       .  A
O667        C684   1.286       .  A
O668       Zr676   2.483       .  S
O668        C683   1.289       .  A
O669       Zr674   2.390       .  S
O669       Zr676   2.334       .  S
O670       Zr675   2.414       .  S
O670       Zr676   2.396       .  S
O670        H705   0.966       .  S
O671       Zr674   2.401       .  S
O671       Zr691   2.407       .  S
O671        H708   0.966       .  S
O672       Zr675   2.376       .  S
O672       Zr691   2.371       .  S
Zr673       O698   2.462       .  S
Zr673       O692   2.466       .  S
Zr673       O700   2.391       .  S
Zr673       O688   2.398       .  S
Zr673       O680   2.437       .  S
Zr673       O681   2.362       .  S
Zr673       O682   2.387       .  S
Zr673       O679   2.331       .  S
Zr674       O693   2.439       .  S
Zr674       O686   2.437       .  S
Zr674       O687   2.423       .  S
Zr674       O680   2.386       .  S
Zr674       O681   2.388       .  S
Zr675       O677   2.435       .  S
Zr675       O699   2.435       .  S
Zr675       O701   2.601       .  S
Zr675       O682   2.429       .  S
Zr675       O679   2.281       .  S
Zr676       O702   2.439       .  S
Zr676       O703   2.444       .  S
Zr676       O678   2.439       .  S
Zr676       O680   2.434       .  S
Zr676       O679   2.317       .  S
O677        H714   0.990       .  S
O678        H709   0.991       .  S
O678        H723   0.990       .  S
O680        H706   0.966       .  S
O681       Zr691   2.372       .  S
O682       Zr691   2.413       .  S
O682        H707   0.968       .  S
C683       C2149   1.503       .  S
C684       C1939   1.538       .  S
C685       C2129   1.461       .  S
O686        H722   0.990       .  S
O687        C689   1.283       .  A
O688        C689   1.272       .  A
C689       C1856   1.456       .  S
O690       Zr691   2.433       .  S
O690        H719   0.990       .  S
Zr691       O694   2.438       .  S
Zr691       O695   2.439       .  S
Zr691       O696   2.394       .  S
O692        C697   1.285       .  A
O693        H710   0.990       .  S
O693        H725   0.990       .  S
O694        H711   0.991       .  S
O695        H715   0.990       .  S
O695        H724   0.990       .  S
O696        C697   1.274       .  A
C697       C1849   1.477       .  S
O698        H717   0.990       .  S
O698        H721   0.987       .  S
O699        H713   0.990       .  S
O699        H720   0.990       .  S
O700        C704   1.259       .  A
O701        C704   1.308       .  A
O702        H712   0.991       .  S
O703        H716   0.991       .  S
C704       C1899   1.538       .  S
Zr727       O728   2.437   1_554  S
Zr727       O729   2.432       .  S
Zr727       O730   2.417       .  S
Zr727       O733   2.388       .  S
Zr727       O735   2.359       .  S
Zr727       O736   2.395       .  S
Zr727       O737   2.410       .  S
Zr727       O738   2.320       .  S
O728        H784   0.990       .  S
O728        H792   0.990       .  S
O729        C749   1.280       .  A
O730        C751   1.273       .  A
O731       Zr741   2.597       .  S
O731        C750   1.312       .  A
O732       Zr740   2.405       .  S
O732        C751   1.277       .  A
O733        C750   1.265       .  A
O734       Zr742   2.447       .  S
O734        C749   1.285       .  A
O735       Zr740   2.392       .  S
O735       Zr742   2.345       .  S
O736       Zr741   2.413       .  S
O736       Zr742   2.393       .  S
O736        H771   0.965       .  S
O737       Zr740   2.403       .  S
O737       Zr757   2.420       .  S
O737        H774   0.964       .  S
O738       Zr741   2.292       .  S
O738       Zr757   2.315       .  S
Zr739       O764   2.444       .  S
Zr739       O758   2.466       .  S
Zr739       O766   2.408       .  S
Zr739       O754   2.395       .  S
Zr739       O746   2.420       .  S
Zr739       O747   2.368       .  S
Zr739       O748   2.385       .  S
Zr739       O745   2.308       .  S
Zr740       O759   2.439       .  S
Zr740       O752   2.440       .  S
Zr740       O753   2.387       .  S
Zr740       O746   2.416       .  S
Zr740       O747   2.381       .  S
Zr741       O743   2.435       .  S
Zr741       O765   2.434       .  S
Zr741       O767   2.595       .  S
Zr741       O748   2.411       .  S
Zr741       O745   2.287       .  S
Zr742       O768   2.435       .  S
Zr742       O769   2.438       .  S
Zr742       O744   2.445       .  S
Zr742       O746   2.408       .  S
Zr742       O745   2.305       .  S
O743        H780   0.990       .  S
O744        H775   0.990       .  S
O744        H789   0.990       .  S
O746        H772   0.967       .  S
O747       Zr757   2.357       .  S
O748       Zr757   2.404       .  S
O748        H773   0.958       .  S
C749       C2019   1.494       .  S
C750       C1929   1.532   1_554  S
C751       C2089   1.448       .  S
O752        H788   0.990       .  S
O753        C755   1.277       .  A
O754        C755   1.272       .  A
C755       C1836   1.432       .  S
O756       Zr757   2.441       .  S
O756        H785   0.991       .  S
Zr757       O760   2.441       .  S
Zr757       O761   2.445       .  S
Zr757       O762   2.449       .  S
O758        C763   1.287       .  A
O759        H776   0.990       .  S
O759        H791   0.990       .  S
O760        H777   0.990       .  S
O761        H781   0.990       .  S
O761        H790   0.990       .  S
O762        C763   1.284       .  A
C763       C1826   1.494       .  S
O764        H783   0.991       .  S
O764        H787   0.991       .  S
O765        H779   0.990       .  S
O765        H786   0.990       .  S
O766        C770   1.273       .  A
O767        C770   1.313       .  A
O768        H778   0.989       .  S
O769        H782   0.991       .  S
C770       C1889   1.540       .  S
Zr793       O794   2.438   1_565  S
Zr793       O795   2.433       .  S
Zr793       O796   2.444       .  S
Zr793       O799   2.444       .  S
Zr793       O801   2.359       .  S
Zr793       O802   2.400       .  S
Zr793       O803   2.414   1_565  S
Zr793       O804   2.385   1_565  S
O794        H850   0.990   1_545  S
O794        H858   0.990       .  S
O795        C815   1.286       .  A
O796        C817   1.287       .  A
O797       Zr807   2.598   1_545  S
O797        C816   1.320       .  A
O798       Zr806   2.411   1_565  S
O798        C817   1.279       .  A
O799        C816   1.288   1_565  A
O800       Zr808   2.492       .  S
O800        C815   1.293       .  A
O801       Zr806   2.367   1_565  S
O801       Zr808   2.321       .  S
O802       Zr807   2.414       .  S
O802       Zr808   2.393       .  S
O802        H837   0.966       .  S
O803       Zr806   2.405       .  S
O803       Zr823   2.420       .  S
O803        H840   0.967       .  S
O804       Zr807   2.400   1_545  S
O804       Zr823   2.389       .  S
Zr805       O830   2.437   1_556  S
Zr805       O824   2.451   1_556  S
Zr805       O832   2.358   1_556  S
Zr805       O820   2.395   1_556  S
Zr805       O811   2.429   1_545  S
Zr805       O812   2.416   1_545  S
Zr805       O813   2.353       .  S
Zr805       O814   2.381       .  S
Zr806       O825   2.437       .  S
Zr806       O818   2.438       .  S
Zr806       O819   2.422   1_556  S
Zr806       O812   2.397   1_545  S
Zr806       O813   2.389       .  S
Zr807       O809   2.435   1_565  S
Zr807       O831   2.436       .  S
Zr807       O833   2.623       .  S
Zr807       O811   2.387       .  S
Zr807       O814   2.416   1_565  S
Zr808       O834   2.435       .  S
Zr808       O835   2.434       .  S
Zr808       O810   2.439       .  S
Zr808       O811   2.399       .  S
Zr808       O812   2.430       .  S
O809        H846   0.990       .  S
O810        H841   0.990       .  S
O810        H855   0.990       .  S
O812        H838   0.967   1_556  S
O813       Zr823   2.373       .  S
O814       Zr823   2.388       .  S
O814        H839   0.964       .  S
C815       C2249   1.511       .  S
C816       C1819   1.553       .  S
C817       C2239   1.468       .  S
O818        H854   0.991   1_545  S
O819        C821   1.279       .  A
O820        C821   1.276       .  A
C821       C2006   1.476       .  S
O822       Zr823   2.436       .  S
O822        H851   0.990       .  S
Zr823       O826   2.438       .  S
Zr823       O827   2.436       .  S
Zr823       O828   2.444       .  S
O824        C829   1.286   1_554  A
O825        H842   0.991       .  S
O825        H857   0.990       .  S
O826        H843   0.990       .  S
O827        H847   0.990       .  S
O827        H856   0.990       .  S
O828        C829   1.285       .  A
C829       C1949   1.498       .  S
O830        H849   0.990       .  S
O830        H853   0.991       .  S
O831        H845   0.990       .  S
O831        H852   0.990       .  S
O832        C836   1.255   1_545  A
O833        C836   1.312   1_556  A
O834        H844   0.990       .  S
O835        H848   0.990   1_556  S
C836       C1806   1.539       .  S
Zr859       O860   2.436       .  S
Zr859       O861   2.451   1_545  S
Zr859       O862   2.400   1_545  S
Zr859       O865   2.364       .  S
Zr859       O867   2.363   1_545  S
Zr859       O868   2.392   1_545  S
Zr859       O869   2.422       .  S
Zr859       O870   2.422       .  S
O860        H916   0.989       .  S
O860        H924   0.989       .  S
O861        C881   1.287       .  A
O862        C883   1.276       .  A
O863       Zr873   2.616       .  S
O863        C882   1.316       .  A
O864       Zr872   2.412   1_565  S
O864        C883   1.274       .  A
O865        C882   1.261       .  A
O866       Zr874   2.454       .  S
O866        C881   1.288       .  A
O867       Zr872   2.387   1_565  S
O867       Zr874   2.356       .  S
O868       Zr873   2.408   1_565  S
O868       Zr874   2.383       .  S
O868        H903   0.966       .  S
O869       Zr872   2.406       .  S
O869       Zr889   2.431       .  S
O869        H906   0.966       .  S
O870       Zr873   2.398       .  S
O870       Zr889   2.405       .  S
Zr871       O896   2.433       .  S
Zr871       O890   2.454       .  S
Zr871       O898   2.422       .  S
Zr871       O886   2.412       .  S
Zr871       O877   2.395       .  S
Zr871       O878   2.441   1_545  S
Zr871       O879   2.368       .  S
Zr871       O880   2.398       .  S
Zr872       O891   2.440       .  S
Zr872       O884   2.438   1_545  S
Zr872       O885   2.394       .  S
Zr872       O878   2.410   1_545  S
Zr872       O879   2.381       .  S
Zr873       O875   2.435       .  S
Zr873       O897   2.434       .  S
Zr873       O899   2.622       .  S
Zr873       O877   2.380       .  S
Zr873       O880   2.428       .  S
Zr874       O900   2.436       .  S
Zr874       O901   2.435       .  S
Zr874       O876   2.438       .  S
Zr874       O877   2.383   1_565  S
Zr874       O878   2.416       .  S
O875        H912   0.990       .  S
O876        H907   0.990       .  S
O876        H921   0.990       .  S
O878        H904   0.965       .  S
O879       Zr889   2.345       .  S
O880       Zr889   2.403       .  S
O880        H905   0.964       .  S
C881       C1749   1.499       .  S
C882       C1776   1.529       .  S
C883       C1786   1.468       .  S
O884        H920   0.990       .  S
O885        C887   1.267       .  A
O886        C887   1.274       .  A
C887       C1796   1.457       .  S
O888       Zr889   2.435       .  S
O888        H917   0.990       .  S
Zr889       O892   2.438       .  S
Zr889       O893   2.439       .  S
Zr889       O894   2.474       .  S
O890        C895   1.286       .  A
O891        H908   0.989       .  S
O891        H923   0.990       .  S
O892        H909   0.990       .  S
O893        H913   0.990       .  S
O893        H922   0.990       .  S
O894        C895   1.289       .  A
C895       C1756   1.509       .  S
O896        H915   0.989       .  S
O896        H919   0.991       .  S
O897        H911   0.990       .  S
O897        H918   0.990       .  S
O898        C902   1.281       .  A
O899        C902   1.325       .  A
O900        H910   0.990       .  S
O901        H914   0.990       .  S
C902       C1766   1.543       .  S
Zr925       O926   2.444       .  S
Zr925       O927   2.478       .  S
Zr925       O928   2.394       .  S
Zr925       O931   2.430   1_565  S
Zr925       O933   2.366       .  S
Zr925       O934   2.401       .  S
Zr925       O935   2.440       .  S
Zr925       O936   2.420       .  S
O926        H982   0.990       .  S
O926        H990   0.989       .  S
O927        C947   1.292       .  A
O928        C949   1.271       .  A
O929       Zr939   2.583       .  S
O929        C948   1.313       .  A
O930       Zr938   2.416       .  S
O930        C949   1.270       .  A
O931        C948   1.279       .  A
O932       Zr940   2.480       .  S
O932        C947   1.292       .  A
O933       Zr938   2.365       .  S
O933       Zr940   2.328       .  S
O934       Zr939   2.441   1_565  S
O934       Zr940   2.406       .  S
O934        H969   0.965   1_565  S
O935       Zr938   2.414       .  S
O935       Zr955   2.411       .  S
O935        H972   0.965       .  S
O936       Zr939   2.406   1_565  S
O936       Zr955   2.390       .  S
Zr937       O962   2.441       .  S
Zr937       O956   2.472       .  S
Zr937       O964   2.368       .  S
Zr937       O952   2.427       .  S
Zr937       O943   2.413       .  S
Zr937       O944   2.409       .  S
Zr937       O945   2.355       .  S
Zr937       O946   2.407       .  S
Zr938       O957   2.433       .  S
Zr938       O950   2.436       .  S
Zr938       O951   2.405       .  S
Zr938       O944   2.389       .  S
Zr938       O945   2.383       .  S
Zr939       O941   2.435       .  S
Zr939       O963   2.436       .  S
Zr939       O965   2.631       .  S
Zr939       O943   2.395   1_545  S
Zr939       O946   2.393   1_545  S
Zr940       O966   2.438       .  S
Zr940       O967   2.435       .  S
Zr940       O942   2.436       .  S
Zr940       O943   2.401       .  S
Zr940       O944   2.440       .  S
O941        H978   0.990       .  S
O942        H973   0.990       .  S
O942        H987   0.990       .  S
O944        H970   0.967       .  S
O945       Zr955   2.356       .  S
O946       Zr955   2.386       .  S
O946        H971   0.965   1_565  S
C947       C1726   1.527       .  S
C948       C1779   1.531       .  S
C949       C1736   1.451       .  S
O950        H986   0.990       .  S
O951        C953   1.279       .  A
O952        C953   1.279       .  A
C953       C2289   1.465       .  S
O954       Zr955   2.436       .  S
O954        H983   0.990       .  S
Zr955       O958   2.437       .  S
Zr955       O959   2.437   1_565  S
Zr955       O960   2.446       .  S
O956        C961   1.291       .  A
O957        H974   0.990       .  S
O957        H989   0.990       .  S
O958        H975   0.990       .  S
O959        H979   0.990       .  S
O959        H988   0.990       .  S
O960        C961   1.287       .  A
C961       C2209   1.504       .  S
O962        H981   0.990       .  S
O962        H985   0.990       .  S
O963        H977   0.990       .  S
O963        H984   0.990       .  S
O964        C968   1.260   1_565  A
O965        C968   1.316       .  A
O966        H976   0.990       .  S
O967        H980   0.990       .  S
C968       C1816   1.549       .  S
Zr991       O992   2.445       .  S
Zr991       O993   2.430       .  S
Zr991       O994   2.459       .  S
Zr991       O997   2.455       .  S
Zr991       O999   2.369       .  S
Zr991      O1000   2.402       .  S
Zr991      O1001   2.412       .  S
Zr991      O1002   2.378       .  S
O992       H1048   0.990       .  S
O992       H1056   0.990       .  S
O993       C1013   1.281       .  A
O994       C1015   1.289       .  A
O995      Zr1005   2.603   1_565  S
O995       C1014   1.318   1_565  A
O996      Zr1004   2.370       .  S
O996       C1015   1.271       .  A
O997       C1014   1.289       .  A
O998      Zr1006   2.486       .  S
O998       C1013   1.291       .  A
O999      Zr1004   2.385       .  S
O999      Zr1006   2.341       .  S
O1000     Zr1005   2.426       .  S
O1000     Zr1006   2.390       .  S
O1000      H1035   0.966       .  S
O1001     Zr1004   2.404       .  S
O1001     Zr1021   2.410       .  S
O1001      H1038   0.965       .  S
O1002     Zr1005   2.394       .  S
O1002     Zr1021   2.369       .  S
Zr1003     O1028   2.446       .  S
Zr1003     O1022   2.464       .  S
Zr1003     O1030   2.376   1_545  S
Zr1003     O1018   2.413       .  S
Zr1003     O1009   2.430       .  S
Zr1003     O1010   2.432       .  S
Zr1003     O1011   2.354       .  S
Zr1003     O1012   2.383       .  S
Zr1004     O1023   2.436       .  S
Zr1004     O1016   2.437       .  S
Zr1004     O1017   2.397       .  S
Zr1004     O1010   2.387       .  S
Zr1004     O1011   2.393       .  S
Zr1005     O1007   2.434   1_545  S
Zr1005     O1029   2.434   1_545  S
Zr1005     O1031   2.636   1_545  S
Zr1005     O1009   2.378       .  S
Zr1005     O1012   2.421       .  S
Zr1006     O1032   2.438       .  S
Zr1006     O1033   2.439       .  S
Zr1006     O1008   2.438       .  S
Zr1006     O1009   2.403       .  S
Zr1006     O1010   2.446       .  S
O1007      H1044   0.990       .  S
O1008      H1039   0.990       .  S
O1008      H1053   0.990       .  S
O1010      H1036   0.966       .  S
O1011     Zr1021   2.372       .  S
O1012     Zr1021   2.398       .  S
O1012      H1037   0.966   1_545  S
C1013      C1989   1.497       .  S
C1014      C1809   1.551   1_545  S
C1015      C1966   1.467       .  S
O1016      H1052   0.990       .  S
O1017      C1019   1.278       .  A
O1018      C1019   1.274       .  A
C1019      C1716   1.460       .  S
O1020     Zr1021   2.435       .  S
O1020      H1049   0.990       .  S
Zr1021     O1024   2.436       .  S
Zr1021     O1025   2.437       .  S
Zr1021     O1026   2.412       .  S
O1022      C1027   1.285       .  A
O1023      H1040   0.990       .  S
O1023      H1055   0.990       .  S
O1024      H1041   0.990       .  S
O1025      H1045   0.990   1_545  S
O1025      H1054   0.990   1_545  S
O1026      C1027   1.278       .  A
C1027      C1706   1.489       .  S
O1028      H1047   0.989       .  S
O1028      H1051   0.989       .  S
O1029      H1043   0.990       .  S
O1029      H1050   0.990       .  S
O1030      C1034   1.257       .  A
O1031      C1034   1.317       .  A
O1032      H1042   0.990       .  S
O1033      H1046   0.991       .  S
C1034      C1769   1.545       .  S
Zr1057     O1058   2.441       .  S
Zr1057     O1059   2.462       .  S
Zr1057     O1060   2.432       .  S
Zr1057     O1063   2.438       .  S
Zr1057     O1065   2.354       .  S
Zr1057     O1066   2.407       .  S
Zr1057     O1067   2.426   1_655  S
Zr1057     O1068   2.404   1_655  S
O1058      H1114   0.990       .  S
O1058      H1122   0.989   1_655  S
O1059      C1079   1.290       .  A
O1060      C1081   1.284       .  A
O1061     Zr1071   2.575       .  S
O1061      C1080   1.312       .  A
O1062     Zr1070   2.394   1_655  S
O1062      C1081   1.279       .  A
O1063      C1080   1.282       .  A
O1064     Zr1072   2.439       .  S
O1064      C1079   1.285       .  A
O1065     Zr1070   2.368   1_655  S
O1065     Zr1072   2.338       .  S
O1066     Zr1071   2.426       .  S
O1066     Zr1072   2.399       .  S
O1066      H1101   0.966       .  S
O1067     Zr1070   2.397       .  S
O1067     Zr1087   2.428       .  S
O1067      H1104   0.963       .  S
O1068     Zr1071   2.406   1_455  S
O1068     Zr1087   2.391       .  S
Zr1069     O1094   2.445   1_565  S
Zr1069     O1088   2.416       .  S
Zr1069     O1096   2.381       .  S
Zr1069     O1084   2.384       .  S
Zr1069     O1075   2.400   1_455  S
Zr1069     O1076   2.389   1_455  S
Zr1069     O1077   2.349       .  S
Zr1069     O1078   2.396       .  S
Zr1070     O1089   2.439       .  S
Zr1070     O1082   2.435       .  S
Zr1070     O1083   2.435       .  S
Zr1070     O1076   2.381   1_455  S
Zr1070     O1077   2.353       .  S
Zr1071     O1073   2.436   1_655  S
Zr1071     O1095   2.437       .  S
Zr1071     O1097   2.627       .  S
Zr1071     O1075   2.386       .  S
Zr1071     O1078   2.407   1_655  S
Zr1072     O1098   2.436       .  S
Zr1072     O1099   2.437       .  S
Zr1072     O1074   2.436       .  S
Zr1072     O1075   2.384       .  S
Zr1072     O1076   2.420       .  S
O1073      H1110   0.990       .  S
O1074      H1105   0.990       .  S
O1074      H1119   0.990       .  S
O1076      H1102   0.966       .  S
O1077     Zr1087   2.334       .  S
O1078     Zr1087   2.378       .  S
O1078      H1103   0.966       .  S
C1079      C1666   1.507       .  S
C1080      C1689   1.530       .  S
C1081      C1699   1.465       .  S
O1082      H1118   0.989   1_455  S
O1083      C1085   1.285       .  A
O1084      C1085   1.276       .  A
C1085      C1799   1.444       .  S
O1086     Zr1087   2.437       .  S
O1086      H1115   0.990       .  S
Zr1087     O1090   2.435       .  S
Zr1087     O1091   2.436       .  S
Zr1087     O1092   2.473       .  S
O1088      C1093   1.284       .  A
O1089      H1106   0.990       .  S
O1089      H1121   0.990       .  S
O1090      H1107   0.990       .  S
O1091      H1111   0.990       .  S
O1091      H1120   0.990       .  S
O1092      C1093   1.292       .  A
C1093      C1709   1.489       .  S
O1094      H1113   0.990   1_455  S
O1094      H1117   0.989       .  S
O1095      H1109   0.990       .  S
O1095      H1116   0.990       .  S
O1096      C1100   1.254   1_565  A
O1097      C1100   1.309   1_665  A
O1098      H1108   0.990       .  S
O1099      H1112   0.990       .  S
C1100      C1676   1.556       .  S
Zr1123     O1124   2.438       .  S
Zr1123     O1125   2.473       .  S
Zr1123     O1126   2.390       .  S
Zr1123     O1129   2.378   1_655  S
Zr1123     O1131   2.361       .  S
Zr1123     O1132   2.381   1_655  S
Zr1123     O1133   2.417   1_655  S
Zr1123     O1134   2.319   1_655  S
O1124      H1180   0.990       .  S
O1124      H1188   0.990       .  S
O1125      C1145   1.291       .  A
O1126      C1147   1.273       .  A
O1127     Zr1137   2.594       .  S
O1127      C1146   1.310       .  A
O1128     Zr1136   2.409       .  S
O1128      C1147   1.281       .  A
O1129      C1146   1.267       .  A
O1130     Zr1138   2.453       .  S
O1130      C1145   1.286       .  A
O1131     Zr1136   2.387       .  S
O1131     Zr1138   2.333       .  S
O1132     Zr1137   2.410       .  S
O1132     Zr1138   2.399   1_455  S
O1132      H1167   0.966   1_455  S
O1133     Zr1136   2.396   1_455  S
O1133     Zr1153   2.421       .  S
O1133      H1170   0.964       .  S
O1134     Zr1137   2.295       .  S
O1134     Zr1153   2.326       .  S
Zr1135     O1160   2.445       .  S
Zr1135     O1154   2.474       .  S
Zr1135     O1162   2.422       .  S
Zr1135     O1150   2.383       .  S
Zr1135     O1141   2.379       .  S
Zr1135     O1142   2.447   1_455  S
Zr1135     O1143   2.368       .  S
Zr1135     O1144   2.395       .  S
Zr1136     O1155   2.435       .  S
Zr1136     O1148   2.438       .  S
Zr1136     O1149   2.405       .  S
Zr1136     O1142   2.403       .  S
Zr1136     O1143   2.388   1_655  S
Zr1137     O1139   2.435       .  S
Zr1137     O1161   2.433       .  S
Zr1137     O1163   2.629       .  S
Zr1137     O1141   2.335       .  S
Zr1137     O1144   2.429       .  S
Zr1138     O1164   2.437       .  S
Zr1138     O1165   2.438       .  S
Zr1138     O1140   2.438       .  S
Zr1138     O1141   2.353   1_655  S
Zr1138     O1142   2.450       .  S
O1139      H1176   0.990       .  S
O1140      H1171   0.990       .  S
O1140      H1185   0.990       .  S
O1142      H1168   0.965       .  S
O1143     Zr1153   2.356       .  S
O1144     Zr1153   2.408       .  S
O1144      H1169   0.964       .  S
C1145      C1879   1.515       .  S
C1146      C1656   1.535       .  S
C1147      C1839   1.457       .  S
O1148      H1184   0.990       .  S
O1149      C1151   1.280   1_655  A
O1150      C1151   1.270       .  A
C1151      C2096   1.438       .  S
O1152     Zr1153   2.438       .  S
O1152      H1181   0.991       .  S
Zr1153     O1156   2.441       .  S
Zr1153     O1157   2.445       .  S
Zr1153     O1158   2.467       .  S
O1154      C1159   1.288       .  A
O1155      H1172   0.990       .  S
O1155      H1187   0.990       .  S
O1156      H1173   0.990       .  S
O1157      H1177   0.990       .  S
O1157      H1186   0.990       .  S
O1158      C1159   1.286       .  A
C1159      C1959   1.512       .  S
O1160      H1179   0.990       .  S
O1160      H1183   0.990       .  S
O1161      H1175   0.990       .  S
O1161      H1182   0.990       .  S
O1162      C1166   1.272       .  A
O1163      C1166   1.321       .  A
O1164      H1174   0.990       .  S
O1165      H1178   0.991       .  S
C1166      C1646   1.540       .  S
Zr1189     O1190   2.441       .  S
Zr1189     O1191   2.436       .  S
Zr1189     O1192   2.401       .  S
Zr1189     O1195   2.385   1_655  S
Zr1189     O1197   2.363       .  S
Zr1189     O1198   2.393   1_655  S
Zr1189     O1199   2.408       .  S
Zr1189     O1200   2.407       .  S
O1190      H1246   0.990       .  S
O1190      H1254   0.989       .  S
O1191      C1211   1.285       .  A
O1192      C1213   1.273       .  A
O1193     Zr1203   2.605       .  S
O1193      C1212   1.317       .  A
O1194     Zr1202   2.444       .  S
O1194      C1213   1.285       .  A
O1195      C1212   1.271       .  A
O1196     Zr1204   2.452   1_455  S
O1196      C1211   1.286   1_455  A
O1197     Zr1202   2.375       .  S
O1197     Zr1204   2.325       .  S
O1198     Zr1203   2.406       .  S
O1198     Zr1204   2.394   1_455  S
O1198      H1233   0.966       .  S
O1199     Zr1202   2.395       .  S
O1199     Zr1219   2.418       .  S
O1199      H1236   0.966       .  S
O1200     Zr1203   2.388   1_655  S
O1200     Zr1219   2.398       .  S
Zr1201     O1226   2.444       .  S
Zr1201     O1220   2.469       .  S
Zr1201     O1228   2.412   1_655  S
Zr1201     O1216   2.407       .  S
Zr1201     O1208   2.424       .  S
Zr1201     O1209   2.364       .  S
Zr1201     O1210   2.392       .  S
Zr1201     O1207   2.308       .  S
Zr1202     O1221   2.439       .  S
Zr1202     O1214   2.438       .  S
Zr1202     O1215   2.399       .  S
Zr1202     O1208   2.420       .  S
Zr1202     O1209   2.392       .  S
Zr1203     O1205   2.437       .  S
Zr1203     O1227   2.437       .  S
Zr1203     O1229   2.588       .  S
Zr1203     O1210   2.427   1_455  S
Zr1203     O1207   2.288   1_455  S
Zr1204     O1230   2.437   1_655  S
Zr1204     O1231   2.442   1_655  S
Zr1204     O1206   2.442       .  S
Zr1204     O1208   2.425       .  S
Zr1204     O1207   2.297       .  S
O1205      H1242   0.990       .  S
O1206      H1237   0.990       .  S
O1206      H1251   0.990       .  S
O1208      H1234   0.965       .  S
O1209     Zr1219   2.366       .  S
O1210     Zr1219   2.402       .  S
O1210      H1235   0.964       .  S
C1211      C1626   1.496   1_655  S
C1212      C1686   1.528       .  S
C1213      C1636   1.475       .  S
O1214      H1250   0.990       .  S
O1215      C1217   1.278       .  A
O1216      C1217   1.273       .  A
C1217      C1916   1.443       .  S
O1218     Zr1219   2.438       .  S
O1218      H1247   0.990       .  S
Zr1219     O1222   2.438       .  S
Zr1219     O1223   2.443       .  S
Zr1219     O1224   2.431       .  S
O1220      C1225   1.288       .  A
O1221      H1238   0.990       .  S
O1221      H1253   0.990       .  S
O1222      H1239   0.990       .  S
O1223      H1243   0.990       .  S
O1223      H1252   0.990       .  S
O1224      C1225   1.282       .  A
C1225      C1829   1.502       .  S
O1226      H1245   0.990       .  S
O1226      H1249   0.991       .  S
O1227      H1241   0.990       .  S
O1227      H1248   0.990       .  S
O1228      C1232   1.271       .  A
O1229      C1232   1.311       .  A
O1230      H1240   0.991       .  S
O1231      H1244   0.991       .  S
C1232      C1659   1.531       .  S
Zr1255     O1256   2.443       .  S
Zr1255     O1257   2.470       .  S
Zr1255     O1258   2.389       .  S
Zr1255     O1261   2.379       .  S
Zr1255     O1263   2.368       .  S
Zr1255     O1264   2.385       .  S
Zr1255     O1265   2.423       .  S
Zr1255     O1266   2.312       .  S
O1256      H1312   0.990       .  S
O1256      H1320   0.990       .  S
O1257      C1277   1.290       .  A
O1258      C1279   1.265       .  A
O1259     Zr1269   2.605       .  S
O1259      C1278   1.312       .  A
O1260     Zr1268   2.417       .  S
O1260      C1279   1.279       .  A
O1261      C1278   1.265       .  A
O1262     Zr1270   2.425       .  S
O1262      C1277   1.282       .  A
O1263     Zr1268   2.399       .  S
O1263     Zr1270   2.350       .  S
O1264     Zr1269   2.409       .  S
O1264     Zr1270   2.407       .  S
O1264      H1299   0.966       .  S
O1265     Zr1268   2.415       .  S
O1265     Zr1285   2.424       .  S
O1265      H1302   0.965       .  S
O1266     Zr1269   2.289       .  S
O1266     Zr1285   2.314       .  S
Zr1267     O1292   2.439       .  S
Zr1267     O1286   2.429       .  S
Zr1267     O1294   2.419       .  S
Zr1267     O1282   2.425       .  S
Zr1267     O1273   2.381       .  S
Zr1267     O1274   2.419       .  S
Zr1267     O1275   2.342       .  S
Zr1267     O1276   2.404       .  S
Zr1268     O1287   2.437       .  S
Zr1268     O1280   2.437       .  S
Zr1268     O1281   2.432       .  S
Zr1268     O1274   2.397       .  S
Zr1268     O1275   2.362       .  S
Zr1269     O1271   2.436   1_455  S
Zr1269     O1293   2.435   1_455  S
Zr1269     O1295   2.607   1_455  S
Zr1269     O1273   2.368       .  S
Zr1269     O1276   2.420       .  S
Zr1270     O1296   2.435   1_455  S
Zr1270     O1297   2.436       .  S
Zr1270     O1272   2.437       .  S
Zr1270     O1273   2.352       .  S
Zr1270     O1274   2.427       .  S
O1271      H1308   0.990       .  S
O1272      H1303   0.990       .  S
O1272      H1317   0.989       .  S
O1274      H1300   0.967       .  S
O1275     Zr1285   2.319       .  S
O1276     Zr1285   2.392       .  S
O1276      H1301   0.967       .  S
C1277      C2059   1.499       .  S
C1278      C1649   1.540       .  S
C1279      C1976   1.453       .  S
O1280      H1316   0.990       .  S
O1281      C1283   1.286       .  A
O1282      C1283   1.282       .  A
C1283      C1719   1.464       .  S
O1284     Zr1285   2.436       .  S
O1284      H1313   0.991       .  S
Zr1285     O1288   2.437       .  S
Zr1285     O1289   2.438       .  S
Zr1285     O1290   2.487       .  S
O1286      C1291   1.285       .  A
O1287      H1304   0.989       .  S
O1287      H1319   0.990       .  S
O1288      H1305   0.989       .  S
O1289      H1309   0.990       .  S
O1289      H1318   0.990       .  S
O1290      C1291   1.292       .  A
C1291      C1759   1.515       .  S
O1292      H1311   0.989       .  S
O1292      H1315   0.990       .  S
O1293      H1307   0.990       .  S
O1293      H1314   0.990       .  S
O1294      C1298   1.276       .  A
O1295      C1298   1.311   1_655  A
O1296      H1306   0.990       .  S
O1297      H1310   0.989       .  S
C1298      C1679   1.552       .  S
Zr1321     O1322   2.438       .  S
Zr1321     O1323   2.472       .  S
Zr1321     O1324   2.422       .  S
Zr1321     O1327   2.422       .  S
Zr1321     O1329   2.364       .  S
Zr1321     O1330   2.401       .  S
Zr1321     O1331   2.428       .  S
Zr1321     O1332   2.384       .  S
O1322      H1378   0.990       .  S
O1322      H1386   0.989       .  S
O1323      C1343   1.289       .  A
O1324      C1345   1.281       .  A
O1325     Zr1335   2.618       .  S
O1325      C1344   1.324       .  A
O1326     Zr1334   2.406       .  S
O1326      C1345   1.280       .  A
O1327      C1344   1.284       .  A
O1328     Zr1336   2.446       .  S
O1328      C1343   1.283       .  A
O1329     Zr1334   2.369       .  S
O1329     Zr1336   2.362       .  S
O1330     Zr1335   2.434       .  S
O1330     Zr1336   2.402       .  S
O1330      H1365   0.965       .  S
O1331     Zr1334   2.410       .  S
O1331     Zr1351   2.422       .  S
O1331      H1368   0.959       .  S
O1332     Zr1335   2.358       .  S
O1332     Zr1351   2.363       .  S
Zr1333     O1358   2.438       .  S
Zr1333     O1352   2.419       .  S
Zr1333     O1360   2.371       .  S
Zr1333     O1348   2.399       .  S
Zr1333     O1339   2.405       .  S
Zr1333     O1340   2.401       .  S
Zr1333     O1341   2.357       .  S
Zr1333     O1342   2.389       .  S
Zr1334     O1353   2.440       .  S
Zr1334     O1346   2.437       .  S
Zr1334     O1347   2.426       .  S
Zr1334     O1340   2.390       .  S
Zr1334     O1341   2.366       .  S
Zr1335     O1337   2.435       .  S
Zr1335     O1359   2.436       .  S
Zr1335     O1361   2.609       .  S
Zr1335     O1339   2.398       .  S
Zr1335     O1342   2.405       .  S
Zr1336     O1362   2.440       .  S
Zr1336     O1363   2.434       .  S
Zr1336     O1338   2.445       .  S
Zr1336     O1339   2.402       .  S
Zr1336     O1340   2.421       .  S
O1337      H1374   0.990       .  S
O1338      H1369   0.990       .  S
O1338      H1383   0.989       .  S
O1340      H1366   0.964       .  S
O1341     Zr1351   2.328       .  S
O1342     Zr1351   2.390       .  S
O1342      H1367   0.965       .  S
C1343      C1669   1.490       .  S
C1344      C1606   1.528       .  S
C1345      C1639   1.447       .  S
O1346      H1382   0.990       .  S
O1347      C1349   1.283       .  A
O1348      C1349   1.274       .  A
C1349      C1906   1.466       .  S
O1350     Zr1351   2.433       .  S
O1350      H1379   0.990       .  S
Zr1351     O1354   2.436       .  S
Zr1351     O1355   2.437       .  S
Zr1351     O1356   2.446       .  S
O1352      C1357   1.282       .  A
O1353      H1370   0.990       .  S
O1353      H1385   0.990       .  S
O1354      H1371   0.990       .  S
O1355      H1375   0.990       .  S
O1355      H1384   0.990       .  S
O1356      C1357   1.286       .  A
C1357      C1846   1.492       .  S
O1358      H1377   0.989       .  S
O1358      H1381   0.990       .  S
O1359      H1373   0.990       .  S
O1359      H1380   0.990       .  S
O1360      C1364   1.265       .  A
O1361      C1364   1.315       .  A
O1362      H1372   0.990       .  S
O1363      H1376   0.989       .  S
C1364      C1616   1.531       .  S
Zr1387     O1388   2.444       .  S
Zr1387     O1389   2.449       .  S
Zr1387     O1390   2.408       .  S
Zr1387     O1393   2.384       .  S
Zr1387     O1395   2.364       .  S
Zr1387     O1396   2.387       .  S
Zr1387     O1397   2.410       .  S
Zr1387     O1398   2.409       .  S
O1388      H1444   0.990       .  S
O1388      H1452   0.989       .  S
O1389      C1409   1.287       .  A
O1390      C1411   1.270       .  A
O1391     Zr1401   2.580       .  S
O1391      C1410   1.308       .  A
O1392     Zr1400   2.410       .  S
O1392      C1411   1.278       .  A
O1393      C1410   1.266       .  A
O1394     Zr1402   2.455       .  S
O1394      C1409   1.287       .  A
O1395     Zr1400   2.390       .  S
O1395     Zr1402   2.346       .  S
O1396     Zr1401   2.415       .  S
O1396     Zr1402   2.395       .  S
O1396      H1431   0.967       .  S
O1397     Zr1400   2.403       .  S
O1397     Zr1417   2.422       .  S
O1397      H1434   0.970       .  S
O1398     Zr1401   2.392       .  S
O1398     Zr1417   2.385       .  S
Zr1399     O1424   2.441       .  S
Zr1399     O1418   2.454       .  S
Zr1399     O1426   2.431       .  S
Zr1399     O1414   2.438       .  S
Zr1399     O1405   2.392       .  S
Zr1399     O1406   2.421       .  S
Zr1399     O1407   2.346       .  S
Zr1399     O1408   2.398       .  S
Zr1400     O1419   2.440       .  S
Zr1400     O1412   2.437       .  S
Zr1400     O1413   2.399       .  S
Zr1400     O1406   2.402       .  S
Zr1400     O1407   2.362       .  S
Zr1401     O1403   2.434       .  S
Zr1401     O1425   2.437       .  S
Zr1401     O1427   2.569       .  S
Zr1401     O1405   2.388       .  S
Zr1401     O1408   2.416       .  S
Zr1402     O1428   2.435       .  S
Zr1402     O1429   2.433       .  S
Zr1402     O1404   2.439       .  S
Zr1402     O1405   2.383       .  S
Zr1402     O1406   2.431       .  S
O1403      H1440   0.990       .  S
O1404      H1435   0.989       .  S
O1404      H1449   0.990       .  S
O1406      H1432   0.967       .  S
O1407     Zr1417   2.329       .  S
O1408     Zr1417   2.399       .  S
O1408      H1433   0.969       .  S
C1409      C1746   1.497       .  S
C1410      C1589   1.514       .  S
C1411      C1739   1.445       .  S
O1412      H1448   0.990       .  S
O1413      C1415   1.280       .  A
O1414      C1415   1.285       .  A
C1415      C2299   1.466       .  S
O1416     Zr1417   2.433       .  S
O1416      H1445   0.991       .  S
Zr1417     O1420   2.437       .  S
Zr1417     O1421   2.436       .  S
Zr1417     O1422   2.450       .  S
O1418      C1423   1.289       .  A
O1419      H1436   0.990       .  S
O1419      H1451   0.990       .  S
O1420      H1437   0.990       .  S
O1421      H1441   0.990       .  S
O1421      H1450   0.990       .  S
O1422      C1423   1.286       .  A
C1423      C2116   1.509       .  S
O1424      H1443   0.990       .  S
O1424      H1447   0.990       .  S
O1425      H1439   0.990       .  S
O1425      H1446   0.990       .  S
O1426      C1430   1.285       .  A
O1427      C1430   1.313       .  A
O1428      H1438   0.990       .  S
O1429      H1442   0.990       .  S
C1430      C1596   1.524       .  S
Zr1453     O1454   2.438       .  S
Zr1453     O1455   2.459       .  S
Zr1453     O1456   2.425       .  S
Zr1453     O1459   2.423       .  S
Zr1453     O1461   2.340       .  S
Zr1453     O1462   2.397       .  S
Zr1453     O1463   2.424       .  S
Zr1453     O1464   2.393       .  S
O1454      H1510   0.990       .  S
O1454      H1518   0.990       .  S
O1455      C1475   1.290       .  A
O1456      C1477   1.283       .  A
O1457     Zr1467   2.599       .  S
O1457      C1476   1.318       .  A
O1458     Zr1466   2.416       .  S
O1458      C1477   1.283       .  A
O1459      C1476   1.282       .  A
O1460     Zr1468   2.464       .  S
O1460      C1475   1.288       .  A
O1461     Zr1466   2.361       .  S
O1461     Zr1468   2.325       .  S
O1462     Zr1467   2.422       .  S
O1462     Zr1468   2.403       .  S
O1462      H1497   0.965       .  S
O1463     Zr1466   2.413       .  S
O1463     Zr1483   2.443       .  S
O1463      H1500   0.964       .  S
O1464     Zr1467   2.383       .  S
O1464     Zr1483   2.377       .  S
Zr1465     O1490   2.437       .  S
Zr1465     O1484   2.421       .  S
Zr1465     O1492   2.371       .  S
Zr1465     O1480   2.414       .  S
Zr1465     O1471   2.409       .  S
Zr1465     O1472   2.403       .  S
Zr1465     O1473   2.351       .  S
Zr1465     O1474   2.391       .  S
Zr1466     O1485   2.436       .  S
Zr1466     O1478   2.435       .  S
Zr1466     O1479   2.431       .  S
Zr1466     O1472   2.406       .  S
Zr1466     O1473   2.375       .  S
Zr1467     O1469   2.435       .  S
Zr1467     O1491   2.434       .  S
Zr1467     O1493   2.597       .  S
Zr1467     O1471   2.401       .  S
Zr1467     O1474   2.411       .  S
Zr1468     O1494   2.439       .  S
Zr1468     O1495   2.439       .  S
Zr1468     O1470   2.441       .  S
Zr1468     O1471   2.391       .  S
Zr1468     O1472   2.435       .  S
O1469      H1506   0.990       .  S
O1470      H1501   0.990       .  S
O1470      H1515   0.990       .  S
O1472      H1498   0.965       .  S
O1473     Zr1483   2.328       .  S
O1474     Zr1483   2.392       .  S
O1474      H1499   0.965       .  S
C1475      C1869   1.517       .  S
C1476      C1619   1.534       .  S
C1477      C1859   1.466       .  S
O1478      H1514   0.990       .  S
O1479      C1481   1.283       .  A
O1480      C1481   1.274       .  A
C1481      C2136   1.474       .  S
O1482     Zr1483   2.435       .  S
O1482      H1511   0.990       .  S
Zr1483     O1486   2.435       .  S
Zr1483     O1487   2.439       .  S
Zr1483     O1488   2.465       .  S
O1484      C1489   1.282       .  A
O1485      H1502   0.989       .  S
O1485      H1517   0.990       .  S
O1486      H1503   0.989       .  S
O1487      H1507   0.990       .  S
O1487      H1516   0.990       .  S
O1488      C1489   1.289       .  A
C1489      C2256   1.493       .  S
O1490      H1509   0.990       .  S
O1490      H1513   0.990       .  S
O1491      H1505   0.990       .  S
O1491      H1512   0.990       .  S
O1492      C1496   1.264       .  A
O1493      C1496   1.312       .  A
O1494      H1504   0.990       .  S
O1495      H1508   0.989       .  S
C1496      C1599   1.520       .  S
Zr1519     O1520   2.446       .  S
Zr1519     O1521   2.453       .  S
Zr1519     O1522   2.408       .  S
Zr1519     O1525   2.426       .  S
Zr1519     O1527   2.364       .  S
Zr1519     O1528   2.389       .  S
Zr1519     O1529   2.424       .  S
Zr1519     O1530   2.374       .  S
O1520      H1576   0.991       .  S
O1520      H1584   0.990       .  S
O1521      C1541   1.286       .  A
O1522      C1543   1.276       .  A
O1523     Zr1533   2.596       .  S
O1523      C1542   1.317       .  A
O1524     Zr1532   2.407       .  S
O1524      C1543   1.278       .  A
O1525      C1542   1.282       .  A
O1526     Zr1534   2.482       .  S
O1526      C1541   1.290       .  A
O1527     Zr1532   2.398       .  S
O1527     Zr1534   2.342       .  S
O1528     Zr1533   2.434       .  S
O1528     Zr1534   2.393       .  S
O1528      H1563   0.966       .  S
O1529     Zr1532   2.403       .  S
O1529     Zr1549   2.413       .  S
O1529      H1566   0.969       .  S
O1530     Zr1533   2.369       .  S
O1530     Zr1549   2.365       .  S
Zr1531     O1556   2.451   1_455  S
Zr1531     O1550   2.477       .  S
Zr1531     O1558   2.397       .  S
Zr1531     O1546   2.387   1_455  S
Zr1531     O1537   2.421       .  S
Zr1531     O1538   2.439       .  S
Zr1531     O1539   2.360       .  S
Zr1531     O1540   2.381       .  S
Zr1532     O1551   2.436       .  S
Zr1532     O1544   2.435       .  S
Zr1532     O1545   2.418       .  S
Zr1532     O1538   2.403       .  S
Zr1532     O1539   2.390       .  S
Zr1533     O1535   2.436       .  S
Zr1533     O1557   2.436       .  S
Zr1533     O1559   2.603       .  S
Zr1533     O1537   2.377       .  S
Zr1533     O1540   2.428       .  S
Zr1534     O1560   2.438       .  S
Zr1534     O1561   2.439       .  S
Zr1534     O1536   2.439       .  S
Zr1534     O1537   2.395       .  S
Zr1534     O1538   2.451       .  S
O1535      H1572   0.990       .  S
O1536      H1567   0.990       .  S
O1536      H1581   0.990       .  S
O1538      H1564   0.965       .  S
O1539     Zr1549   2.366       .  S
O1540     Zr1549   2.406       .  S
O1540      H1565   0.966       .  S
C1541      C1729   1.520       .  S
C1542      C1586   1.529       .  S
C1543      C1789   1.472       .  S
O1544      H1580   0.990       .  S
O1545      C1547   1.282   1_455  A
O1546      C1547   1.269       .  A
C1547      C1696   1.449       .  S
O1548     Zr1549   2.433       .  S
O1548      H1577   0.990       .  S
Zr1549     O1552   2.439       .  S
Zr1549     O1553   2.442       .  S
Zr1549     O1554   2.407       .  S
O1550      C1555   1.288       .  A
O1551      H1568   0.990       .  S
O1551      H1583   0.990       .  S
O1552      H1569   0.990       .  S
O1553      H1573   0.990       .  S
O1553      H1582   0.990       .  S
O1554      C1555   1.277       .  A
C1555      C1629   1.488       .  S
O1556      H1575   0.989       .  S
O1556      H1579   0.991       .  S
O1557      H1571   0.990       .  S
O1557      H1578   0.990       .  S
O1558      C1562   1.264       .  A
O1559      C1562   1.312       .  A
O1560      H1570   0.991       .  S
O1561      H1574   0.991       .  S
C1562      C1609   1.532   1_455  S
C1585      C1586   1.423       .  A
C1585      C1590   1.409       .  A
C1585      F1592   1.356       .  S
C1586      C1587   1.410       .  A
C1587      C1588   1.428       .  A
C1587      F1594   1.356       .  S
C1588      C1589   1.420       .  A
C1588      F1593   1.352       .  S
C1589      C1590   1.404       .  A
C1590      F1591   1.358       .  S
C1595      C1596   1.413       .  A
C1595      C1600   1.417       .  A
C1595      F1602   1.353       .  S
C1596      C1597   1.412       .  A
C1597      C1598   1.426       .  A
C1597      F1604   1.357       .  S
C1598      C1599   1.419       .  A
C1598      F1603   1.355       .  S
C1599      C1600   1.410       .  A
C1600      F1601   1.357       .  S
C1605      C1606   1.417       .  A
C1605      C1610   1.427       .  A
C1605      F1612   1.354       .  S
C1606      C1607   1.413       .  A
C1607      C1608   1.422       .  A
C1607      F1614   1.357       .  S
C1608      C1609   1.416       .  A
C1608      F1613   1.351       .  S
C1609      C1610   1.416       .  A
C1610      F1611   1.357       .  S
C1615      C1616   1.420       .  A
C1615      C1620   1.433       .  A
C1615      F1622   1.354       .  S
C1616      C1617   1.414       .  A
C1617      C1618   1.417       .  A
C1617      F1624   1.358       .  S
C1618      C1619   1.414       .  A
C1618      F1623   1.353       .  S
C1619      C1620   1.415       .  A
C1620      F1621   1.356       .  S
C1625      C1626   1.414       .  A
C1625      C1630   1.407       .  A
C1625      F1632   1.357   1_455  S
C1626      C1627   1.409       .  A
C1627      C1628   1.403       .  A
C1627      F1634   1.358       .  S
C1628      C1629   1.409       .  A
C1628      F1633   1.358       .  S
C1629      C1630   1.404       .  A
C1630      F1631   1.357       .  S
C1635      C1636   1.411       .  A
C1635      C1640   1.394       .  A
C1635      F1642   1.358       .  S
C1636      C1637   1.410       .  A
C1637      C1638   1.393       .  A
C1637      F1644   1.358       .  S
C1638      C1639   1.401       .  A
C1638      F1643   1.359       .  S
C1639      C1640   1.398       .  A
C1640      F1641   1.357       .  S
C1645      C1646   1.414       .  A
C1645      C1650   1.416       .  A
C1645      F1652   1.353       .  S
C1646      C1647   1.418       .  A
C1647      C1648   1.437       .  A
C1647      F1654   1.356       .  S
C1648      C1649   1.420       .  A
C1648      F1653   1.354       .  S
C1649      C1650   1.416       .  A
C1650      F1651   1.359   1_455  S
C1655      C1656   1.417       .  A
C1655      C1660   1.433       .  A
C1655      F1662   1.354       .  S
C1656      C1657   1.417       .  A
C1657      C1658   1.414       .  A
C1657      F1664   1.358       .  S
C1658      C1659   1.410       .  A
C1658      F1663   1.355       .  S
C1659      C1660   1.419       .  A
C1660      F1661   1.357       .  S
C1665      C1666   1.418       .  A
C1665      C1670   1.407       .  A
C1665      F1672   1.358       .  S
C1666      C1667   1.411       .  A
C1667      C1668   1.409       .  A
C1667      F1674   1.358       .  S
C1668      C1669   1.408       .  A
C1668      F1673   1.358       .  S
C1669      C1670   1.401       .  A
C1670      F1671   1.357       .  S
C1675      C1676   1.422       .  A
C1675      C1680   1.393       .  A
C1675      F1682   1.358       .  S
C1676      C1677   1.425   1_455  A
C1677      C1678   1.451       .  A
C1677      F1684   1.356       .  S
C1678      C1679   1.431   1_655  A
C1678      F1683   1.356       .  S
C1679      C1680   1.411       .  A
C1680      F1681   1.359       .  S
C1685      C1686   1.419   1_655  A
C1685      C1690   1.426       .  A
C1685      F1692   1.354       .  S
C1686      C1687   1.414       .  A
C1687      C1688   1.423       .  A
C1687      F1694   1.357       .  S
C1688      C1689   1.413   1_455  A
C1688      F1693   1.353       .  S
C1689      C1690   1.413       .  A
C1690      F1691   1.357       .  S
C1695      C1696   1.406       .  A
C1695      C1700   1.394       .  A
C1695      F1702   1.358       .  S
C1696      C1697   1.392       .  A
C1697      C1698   1.386       .  A
C1697      F1704   1.358       .  S
C1698      C1699   1.412       .  A
C1698      F1703   1.358       .  S
C1699      C1700   1.402       .  A
C1700      F1701   1.358       .  S
C1705      C1706   1.407       .  A
C1705      C1710   1.400       .  A
C1705      F1712   1.358       .  S
C1706      C1707   1.409   1_545  A
C1707      C1708   1.410       .  A
C1707      F1714   1.358       .  S
C1708      C1709   1.409       .  A
C1708      F1713   1.357       .  S
C1709      C1710   1.408   1_565  A
C1710      F1711   1.358       .  S
C1715      C1716   1.402       .  A
C1715      C1720   1.392       .  A
C1715      F1722   1.358       .  S
C1716      C1717   1.408       .  A
C1717      C1718   1.391       .  A
C1717      F1724   1.357       .  S
C1718      C1719   1.401       .  A
C1718      F1723   1.358       .  S
C1719      C1720   1.407       .  A
C1720      F1721   1.359       .  S
C1725      C1726   1.416       .  A
C1725      C1730   1.412       .  A
C1725      F1732   1.358       .  S
C1726      C1727   1.420       .  A
C1727      C1728   1.420       .  A
C1727      F1734   1.357       .  S
C1728      C1729   1.412       .  A
C1728      F1733   1.357       .  S
C1729      C1730   1.412       .  A
C1730      F1731   1.355       .  S
C1735      C1736   1.402       .  A
C1735      C1740   1.384       .  A
C1735      F1742   1.358       .  S
C1736      C1737   1.407       .  A
C1737      C1738   1.391       .  A
C1737      F1744   1.359       .  S
C1738      C1739   1.399       .  A
C1738      F1743   1.358       .  S
C1739      C1740   1.402       .  A
C1740      F1741   1.357       .  S
C1745      C1746   1.409       .  A
C1745      C1750   1.405       .  A
C1745      F1752   1.358       .  S
C1746      C1747   1.410       .  A
C1747      C1748   1.411       .  A
C1747      F1754   1.358       .  S
C1748      C1749   1.411       .  A
C1748      F1753   1.358       .  S
C1749      C1750   1.409       .  A
C1750      F1751   1.358       .  S
C1755      C1756   1.412       .  A
C1755      C1760   1.422       .  A
C1755      F1762   1.357       .  S
C1756      C1757   1.408       .  A
C1757      C1758   1.399       .  A
C1757      F1764   1.354       .  S
C1758      C1759   1.412       .  A
C1758      F1763   1.358       .  S
C1759      C1760   1.418       .  A
C1760      F1761   1.357       .  S
C1765      C1766   1.418       .  A
C1765      C1770   1.436       .  A
C1765      F1772   1.357       .  S
C1766      C1767   1.416   1_545  A
C1767      C1768   1.426       .  A
C1767      F1774   1.353       .  S
C1768      C1769   1.417       .  A
C1768      F1773   1.357       .  S
C1769      C1770   1.423   1_565  A
C1770      F1771   1.353       .  S
C1775      C1776   1.416       .  A
C1775      C1780   1.429       .  A
C1775      F1782   1.354       .  S
C1776      C1777   1.417       .  A
C1777      C1778   1.421       .  A
C1777      F1784   1.358       .  S
C1778      C1779   1.414       .  A
C1778      F1783   1.357       .  S
C1779      C1780   1.416       .  A
C1780      F1781   1.357       .  S
C1785      C1786   1.408       .  A
C1785      C1790   1.384       .  A
C1785      F1792   1.357       .  S
C1786      C1787   1.404       .  A
C1787      C1788   1.395       .  A
C1787      F1794   1.357       .  S
C1788      C1789   1.411       .  A
C1788      F1793   1.358       .  S
C1789      C1790   1.406       .  A
C1790      F1791   1.358       .  S
C1795      C1796   1.409       .  A
C1795      C1800   1.390       .  A
C1795      F1802   1.358       .  S
C1796      C1797   1.403   1_545  A
C1797      C1798   1.389       .  A
C1797      F1804   1.358       .  S
C1798      C1799   1.402       .  A
C1798      F1803   1.358       .  S
C1799      C1800   1.397   1_565  A
C1800      F1801   1.358       .  S
C1805      C1806   1.427       .  A
C1805      C1810   1.444       .  A
C1805      F1812   1.355       .  S
C1806      C1807   1.412   1_565  A
C1807      C1808   1.413       .  A
C1807      F1814   1.358       .  S
C1808      C1809   1.419   1_545  A
C1808      F1813   1.356       .  S
C1809      C1810   1.422       .  A
C1810      F1811   1.356       .  S
C1815      C1816   1.432       .  A
C1815      C1820   1.429       .  A
C1815      F1822   1.358       .  S
C1816      C1817   1.408       .  A
C1817      C1818   1.431       .  A
C1817      F1824   1.356       .  S
C1818      C1819   1.429       .  A
C1818      F1823   1.357       .  S
C1819      C1820   1.411       .  A
C1820      F1821   1.357   1_545  S
C1825      C1826   1.405       .  A
C1825      C1830   1.408       .  A
C1825      F1832   1.357       .  S
C1826      C1827   1.410       .  A
C1827      C1828   1.408       .  A
C1827      F1834   1.358       .  S
C1828      C1829   1.410       .  A
C1828      F1833   1.358       .  S
C1829      C1830   1.415       .  A
C1830      F1831   1.358       .  S
C1835      C1836   1.395       .  A
C1835      C1840   1.380       .  A
C1835      F1842   1.359       .  S
C1836      C1837   1.398       .  A
C1837      C1838   1.390       .  A
C1837      F1844   1.357       .  S
C1838      C1839   1.408       .  A
C1838      F1843   1.358       .  S
C1839      C1840   1.409       .  A
C1840      F1841   1.359       .  S
C1845      C1846   1.413       .  A
C1845      C1850   1.400       .  A
C1845      F1852   1.358       .  S
C1846      C1847   1.412       .  A
C1847      C1848   1.404       .  A
C1847      F1854   1.357       .  S
C1848      C1849   1.403       .  A
C1848      F1853   1.357       .  S
C1849      C1850   1.405       .  A
C1850      F1851   1.358       .  S
C1855      C1856   1.399       .  A
C1855      C1860   1.392       .  A
C1855      F1862   1.357       .  S
C1856      C1857   1.407       .  A
C1857      C1858   1.391       .  A
C1857      F1864   1.357       .  S
C1858      C1859   1.403       .  A
C1858      F1863   1.358       .  S
C1859      C1860   1.409       .  A
C1860      F1861   1.358       .  S
C1865      C1866   1.407       .  A
C1865      C1870   1.414       .  A
C1865      F1872   1.357       .  S
C1866      C1867   1.408       .  A
C1867      C1868   1.412       .  A
C1867      F1874   1.357       .  S
C1868      C1869   1.413       .  A
C1868      F1873   1.357       .  S
C1869      C1870   1.419       .  A
C1870      F1871   1.358       .  S
C1875      C1876   1.413       .  A
C1875      C1880   1.414       .  A
C1875      F1882   1.355       .  S
C1876      C1877   1.416       .  A
C1877      C1878   1.413       .  A
C1877      F1884   1.358       .  S
C1878      C1879   1.412       .  A
C1878      F1883   1.358       .  S
C1879      C1880   1.411       .  A
C1880      F1881   1.354       .  S
C1885      C1886   1.413       .  A
C1885      C1890   1.420       .  A
C1885      F1892   1.354       .  S
C1886      C1887   1.421       .  A
C1887      C1888   1.434       .  A
C1887      F1894   1.357       .  S
C1888      C1889   1.416       .  A
C1888      F1893   1.353       .  S
C1889      C1890   1.417       .  A
C1890      F1891   1.358       .  S
C1895      C1896   1.412       .  A
C1895      C1900   1.420       .  A
C1895      F1902   1.358       .  S
C1896      C1897   1.418       .  A
C1897      C1898   1.431       .  A
C1897      F1904   1.353       .  S
C1898      C1899   1.418       .  A
C1898      F1903   1.357       .  S
C1899      C1900   1.415       .  A
C1900      F1901   1.348       .  S
C1905      C1906   1.409       .  A
C1905      C1910   1.395       .  A
C1905      F1912   1.358       .  S
C1906      C1907   1.412       .  A
C1907      C1908   1.382       .  A
C1907      F1914   1.359       .  S
C1908      C1909   1.395       .  A
C1908      F1913   1.359       .  S
C1909      C1910   1.400       .  A
C1910      F1911   1.357       .  S
C1915      C1916   1.396       .  A
C1915      C1920   1.388       .  A
C1915      F1922   1.358       .  S
C1916      C1917   1.402       .  A
C1917      C1918   1.393       .  A
C1917      F1924   1.357       .  S
C1918      C1919   1.404       .  A
C1918      F1923   1.358       .  S
C1919      C1920   1.408       .  A
C1920      F1921   1.358       .  S
C1925      C1926   1.415       .  A
C1925      C1930   1.419       .  A
C1925      F1932   1.357       .  S
C1926      C1927   1.421       .  A
C1927      C1928   1.433       .  A
C1927      F1934   1.354       .  S
C1928      C1929   1.419       .  A
C1928      F1933   1.357       .  S
C1929      C1930   1.413       .  A
C1930      F1931   1.355       .  S
C1935      C1936   1.408       .  A
C1935      C1940   1.418       .  A
C1935      F1942   1.358       .  S
C1936      C1937   1.424       .  A
C1937      C1938   1.431       .  A
C1937      F1944   1.355       .  S
C1938      C1939   1.412       .  A
C1938      F1943   1.357       .  S
C1939      C1940   1.420       .  A
C1940      F1941   1.352       .  S
C1945      C1946   1.410       .  A
C1945      C1950   1.408       .  A
C1945      F1952   1.358       .  S
C1946      C1947   1.410       .  A
C1947      C1948   1.406   1_554  A
C1947      F1954   1.356   1_554  S
C1948      C1949   1.409       .  A
C1948      F1953   1.358       .  S
C1949      C1950   1.412   1_556  A
C1950      F1951   1.358       .  S
C1955      C1956   1.412       .  A
C1955      C1960   1.418       .  A
C1955      F1962   1.357       .  S
C1956      C1957   1.411       .  A
C1957      C1958   1.412       .  A
C1957      F1964   1.357       .  S
C1958      C1959   1.409       .  A
C1958      F1963   1.357       .  S
C1959      C1960   1.415       .  A
C1960      F1961   1.358       .  S
C1965      C1966   1.399       .  A
C1965      C1970   1.392       .  A
C1965      F1972   1.358       .  S
C1966      C1967   1.413       .  A
C1967      C1968   1.389       .  A
C1967      F1974   1.357       .  S
C1968      C1969   1.399       .  A
C1968      F1973   1.358       .  S
C1969      C1970   1.415       .  A
C1970      F1971   1.358       .  S
C1975      C1976   1.404       .  A
C1975      C1980   1.387       .  A
C1975      F1982   1.358       .  S
C1976      C1977   1.405       .  A
C1977      C1978   1.388       .  A
C1977      F1984   1.358       .  S
C1978      C1979   1.402       .  A
C1978      F1983   1.358       .  S
C1979      C1980   1.400       .  A
C1980      F1981   1.356       .  S
C1985      C1986   1.407       .  A
C1985      C1990   1.410       .  A
C1985      F1992   1.357       .  S
C1986      C1987   1.415       .  A
C1987      C1988   1.412       .  A
C1987      F1994   1.358       .  S
C1988      C1989   1.407       .  A
C1988      F1993   1.357       .  S
C1989      C1990   1.409       .  A
C1990      F1991   1.356       .  S
C1995      C1996   1.412       .  A
C1995      C2000   1.429       .  A
C1995      F2002   1.357       .  S
C1996      C1997   1.424       .  A
C1997      C1998   1.421       .  A
C1997      F2004   1.357       .  S
C1998      C1999   1.410       .  A
C1998      F2003   1.357       .  S
C1999      C2000   1.426       .  A
C2000      F2001   1.357       .  S
C2005      C2006   1.401       .  A
C2005      C2010   1.396       .  A
C2005      F2012   1.358       .  S
C2006      C2007   1.404       .  A
C2007      C2008   1.394       .  A
C2007      F2014   1.358       .  S
C2008      C2009   1.411       .  A
C2008      F2013   1.357       .  S
C2009      C2010   1.415       .  A
C2010      F2011   1.356       .  S
C2015      C2016   1.409       .  A
C2015      C2020   1.401       .  A
C2015      F2022   1.358       .  S
C2016      C2017   1.408   1_554  A
C2017      C2018   1.408   1_556  A
C2017      F2024   1.355       .  S
C2018      C2019   1.413       .  A
C2018      F2023   1.357   1_554  S
C2019      C2020   1.406       .  A
C2020      F2021   1.357       .  S
C2025      C2026   1.415   1_556  A
C2025      C2030   1.409       .  A
C2025      F2032   1.353       .  S
C2026      C2027   1.417       .  A
C2027      C2028   1.437       .  A
C2027      F2034   1.357       .  S
C2028      C2029   1.421       .  A
C2028      F2033   1.353       .  S
C2029      C2030   1.408   1_554  A
C2030      F2031   1.358       .  S
C2035      C2036   1.400       .  A
C2035      C2040   1.379       .  A
C2035      F2042   1.357       .  S
C2036      C2037   1.397       .  A
C2037      C2038   1.392       .  A
C2037      F2044   1.357       .  S
C2038      C2039   1.408       .  A
C2038      F2043   1.358       .  S
C2039      C2040   1.397       .  A
C2040      F2041   1.359       .  S
C2045      C2046   1.412       .  A
C2045      C2050   1.408       .  A
C2045      F2052   1.356       .  S
C2046      C2047   1.413       .  A
C2047      C2048   1.421       .  A
C2047      F2054   1.357       .  S
C2048      C2049   1.417       .  A
C2048      F2053   1.357       .  S
C2049      C2050   1.412       .  A
C2050      F2051   1.357       .  S
C2055      C2056   1.409       .  A
C2055      C2060   1.406       .  A
C2055      F2062   1.358       .  S
C2056      C2057   1.411   1_655  A
C2057      C2058   1.408       .  A
C2057      F2064   1.354       .  S
C2058      C2059   1.408       .  A
C2058      F2063   1.356       .  S
C2059      C2060   1.412   1_455  A
C2060      F2061   1.358       .  S
C2065      C2066   1.418       .  A
C2065      C2070   1.431       .  A
C2065      F2072   1.354       .  S
C2066      C2067   1.416       .  A
C2067      C2068   1.424       .  A
C2067      F2074   1.357       .  S
C2068      C2069   1.417       .  A
C2068      F2073   1.356       .  S
C2069      C2070   1.417       .  A
C2070      F2071   1.357       .  S
C2075      C2076   1.419       .  A
C2075      C2080   1.438       .  A
C2075      F2082   1.356       .  S
C2076      C2077   1.414   1_556  A
C2077      C2078   1.419       .  A
C2077      F2084   1.355       .  S
C2078      C2079   1.418       .  A
C2078      F2083   1.358       .  S
C2079      C2080   1.419   1_554  A
C2080      F2081   1.350       .  S
C2085      C2086   1.399   1_554  A
C2085      C2090   1.388       .  A
C2085      F2092   1.358       .  S
C2086      C2087   1.407       .  A
C2087      C2088   1.391       .  A
C2087      F2094   1.358       .  S
C2088      C2089   1.398   1_556  A
C2088      F2093   1.358       .  S
C2089      C2090   1.404       .  A
C2090      F2091   1.358       .  S
C2095      C2096   1.405       .  A
C2095      C2100   1.394       .  A
C2095      F2102   1.357       .  S
C2096      C2097   1.392   1_455  A
C2097      C2098   1.378       .  A
C2097      F2104   1.359       .  S
C2098      C2099   1.407       .  A
C2098      F2103   1.358       .  S
C2099      C2100   1.402   1_655  A
C2100      F2101   1.358       .  S
C2105      C2106   1.412       .  A
C2105      C2110   1.404       .  A
C2105      F2112   1.357       .  S
C2106      C2107   1.411       .  A
C2107      C2108   1.416       .  A
C2107      F2114   1.357       .  S
C2108      C2109   1.414       .  A
C2108      F2113   1.356       .  S
C2109      C2110   1.409       .  A
C2110      F2111   1.358       .  S
C2115      C2116   1.411       .  A
C2115      C2120   1.409       .  A
C2115      F2122   1.358       .  S
C2116      C2117   1.418       .  A
C2117      C2118   1.410       .  A
C2117      F2124   1.357       .  S
C2118      C2119   1.403       .  A
C2118      F2123   1.357       .  S
C2119      C2120   1.408       .  A
C2120      F2121   1.357       .  S
C2125      C2126   1.407       .  A
C2125      C2130   1.387       .  A
C2125      F2132   1.359       .  S
C2126      C2127   1.409       .  A
C2127      C2128   1.389       .  A
C2127      F2134   1.357       .  S
C2128      C2129   1.403       .  A
C2128      F2133   1.358       .  S
C2129      C2130   1.406       .  A
C2130      F2131   1.358       .  S
C2135      C2136   1.410       .  A
C2135      C2140   1.395       .  A
C2135      F2142   1.358       .  S
C2136      C2137   1.412       .  A
C2137      C2138   1.390       .  A
C2137      F2144   1.357       .  S
C2138      C2139   1.395       .  A
C2138      F2143   1.358       .  S
C2139      C2140   1.398       .  A
C2140      F2141   1.354       .  S
C2145      C2146   1.412       .  A
C2145      C2150   1.409       .  A
C2145      F2152   1.358       .  S
C2146      C2147   1.409       .  A
C2147      C2148   1.416       .  A
C2147      F2154   1.357       .  S
C2148      C2149   1.413       .  A
C2148      F2153   1.357       .  S
C2149      C2150   1.406       .  A
C2150      F2151   1.357       .  S
C2155      C2156   1.412       .  A
C2155      C2160   1.408       .  A
C2155      F2162   1.358       .  S
C2156      C2157   1.405       .  A
C2157      C2158   1.408       .  A
C2157      F2164   1.356       .  S
C2158      C2159   1.415       .  A
C2158      F2163   1.356       .  S
C2159      C2160   1.411       .  A
C2160      F2161   1.358       .  S
C2165      C2166   1.413       .  A
C2165      C2170   1.426       .  A
C2165      F2172   1.357       .  S
C2166      C2167   1.418       .  A
C2167      C2168   1.422       .  A
C2167      F2174   1.356       .  S
C2168      C2169   1.413       .  A
C2168      F2173   1.357       .  S
C2169      C2170   1.418       .  A
C2170      F2171   1.355       .  S
C2175      C2176   1.404       .  A
C2175      C2180   1.390       .  A
C2175      F2182   1.358       .  S
C2176      C2177   1.407       .  A
C2177      C2178   1.391       .  A
C2177      F2184   1.357       .  S
C2178      C2179   1.399       .  A
C2178      F2183   1.358       .  S
C2179      C2180   1.404       .  A
C2180      F2181   1.358       .  S
C2185      C2186   1.405       .  A
C2185      C2190   1.382       .  A
C2185      F2192   1.352       .  S
C2186      C2187   1.411       .  A
C2187      C2188   1.406       .  A
C2187      F2194   1.356       .  S
C2188      C2189   1.404       .  A
C2188      F2193   1.356       .  S
C2189      C2190   1.402       .  A
C2190      F2191   1.360       .  S
C2195      C2196   1.410       .  A
C2195      C2200   1.408       .  A
C2195      F2202   1.358       .  S
C2196      C2197   1.414       .  A
C2197      C2198   1.413       .  A
C2197      F2204   1.358       .  S
C2198      C2199   1.408       .  A
C2198      F2203   1.357       .  S
C2199      C2200   1.406       .  A
C2200      F2201   1.357       .  S
C2205      C2206   1.408       .  A
C2205      C2210   1.410   1_545  A
C2205      F2212   1.357       .  S
C2206      C2207   1.412   1_545  A
C2207      C2208   1.404       .  A
C2207      F2214   1.358       .  S
C2208      C2209   1.410       .  A
C2208      F2213   1.358       .  S
C2209      C2210   1.411       .  A
C2210      F2211   1.352   1_565  S
C2215      C2216   1.408       .  A
C2215      C2220   1.425       .  A
C2215      F2222   1.357       .  S
C2216      C2217   1.429       .  A
C2217      C2218   1.428       .  A
C2217      F2224   1.357       .  S
C2218      C2219   1.409       .  A
C2218      F2223   1.357       .  S
C2219      C2220   1.430       .  A
C2220      F2221   1.358       .  S
C2225      C2226   1.401       .  A
C2225      C2230   1.394       .  A
C2225      F2232   1.358       .  S
C2226      C2227   1.406       .  A
C2227      C2228   1.391       .  A
C2227      F2234   1.357       .  S
C2228      C2229   1.406       .  A
C2228      F2233   1.358       .  S
C2229      C2230   1.414       .  A
C2230      F2231   1.357       .  S
C2235      C2236   1.401       .  A
C2235      C2240   1.391       .  A
C2235      F2242   1.358       .  S
C2236      C2237   1.409       .  A
C2237      C2238   1.391       .  A
C2237      F2244   1.359       .  S
C2238      C2239   1.404       .  A
C2238      F2243   1.357       .  S
C2239      C2240   1.412       .  A
C2240      F2241   1.357       .  S
C2245      C2246   1.405       .  A
C2245      C2250   1.406       .  A
C2245      F2252   1.355       .  S
C2246      C2247   1.408       .  A
C2247      C2248   1.418       .  A
C2247      F2254   1.357       .  S
C2248      C2249   1.418       .  A
C2248      F2253   1.357       .  S
C2249      C2250   1.411       .  A
C2250      F2251   1.358       .  S
C2255      C2256   1.409       .  A
C2255      C2260   1.409       .  A
C2255      F2262   1.357       .  S
C2256      C2257   1.409       .  A
C2257      C2258   1.401       .  A
C2257      F2264   1.358       .  S
C2258      C2259   1.409       .  A
C2258      F2263   1.358       .  S
C2259      C2260   1.411       .  A
C2260      F2261   1.358       .  S
C2265      C2266   1.420       .  A
C2265      C2270   1.412       .  A
C2265      F2272   1.358       .  S
C2266      C2267   1.417       .  A
C2267      C2268   1.437       .  A
C2267      F2274   1.356       .  S
C2268      C2269   1.423       .  A
C2268      F2273   1.356       .  S
C2269      C2270   1.413       .  A
C2270      F2271   1.359       .  S
C2275      C2276   1.418       .  A
C2275      C2280   1.426       .  A
C2275      F2282   1.354       .  S
C2276      C2277   1.414       .  A
C2277      C2278   1.423       .  A
C2277      F2284   1.357       .  S
C2278      C2279   1.415       .  A
C2278      F2283   1.354       .  S
C2279      C2280   1.415       .  A
C2280      F2281   1.357       .  S
C2285      C2286   1.414       .  A
C2285      C2290   1.395       .  A
C2285      F2292   1.358       .  S
C2286      C2287   1.411       .  A
C2287      C2288   1.392       .  A
C2287      F2294   1.358       .  S
C2288      C2289   1.404       .  A
C2288      F2293   1.358       .  S
C2289      C2290   1.401       .  A
C2290      F2291   1.358       .  S
C2295      C2296   1.398       .  A
C2295      C2300   1.390       .  A
C2295      F2302   1.358       .  S
C2296      C2297   1.408       .  A
C2297      C2298   1.393       .  A
C2297      F2304   1.357       .  S
C2298      C2299   1.401       .  A
C2298      F2303   1.357       .  S
C2299      C2300   1.411       .  A
C2300      F2301   1.359       .  S
