geometry optimzed in LAMMPS
_audit_creation_date              2020-11-30 
_audit_creation_method            'lammps2cif' 
_symmetry_space_group_name_H-M    'P1' 
_symmetry_Int_Tables_number       1 
_symmetry_cell_setting            triclinic 
loop_ 
_symmetry_equiv_pos_as_xyz 
  x,y,z 
_cell_length_a                    25.27542109797793 
_cell_length_b                    27.973749674929792 
_cell_length_c                    45.87161104365621 
_cell_angle_alpha                 90.75196927388009 
_cell_angle_beta                  90.09826910072358 
_cell_angle_gamma                 89.99327666028746 
loop_ 
_atom_site_label 
_atom_site_type_symbol 
_atom_site_fract_x 
_atom_site_fract_y 
_atom_site_fract_z 
_atom_site_charge 
N1          N  0.84407699  0.40738081  0.30404084    -0.05840
N2          N  0.87867667  0.42350596  0.32379316    -0.57960
N3          N  0.86093468  0.30743191  0.26695435    -0.05520
N4          N  0.89368104  0.27052935  0.26712570    -0.60090
N5          N  0.88311453  0.34418034  0.25402496    -0.05120
N6          N  0.93152161  0.33280268  0.24525102    -0.57930
N7          N  0.81703743  0.37201771  0.31534408    -0.04790
N8          N  0.83030530  0.36491424  0.34252944    -0.60440
C9          C  0.86813906  0.39706479  0.34788555     0.96340
C10         C  0.93727043  0.28655952  0.25326157     0.96120
N11         N  0.70618732  0.26048839  0.25034769    -0.06020
N12         N  0.69799446  0.22092727  0.23473866    -0.58540
N13         N  0.70849978  0.32610673  0.31277168    -0.04140
N14         N  0.70414707  0.34129142  0.34002079    -0.59790
N15         N  0.66376884  0.33264477  0.29863899    -0.06050
N16         N  0.62829326  0.35268630  0.31609998    -0.58800
N17         N  0.75108364  0.25717886  0.26455872    -0.03790
N18         N  0.77437348  0.21601968  0.25930455    -0.59880
Mn19       Mn  0.78395108  0.31474222  0.29002582     1.18440
C20         C  0.74128719  0.19401313  0.24062073     0.98420
C21         C  0.65393068  0.35705416  0.34190060     0.99080
N22         N  0.84116131  0.42048109  0.20656952    -0.06070
N23         N  0.88057702  0.43140557  0.18882085    -0.62380
N24         N  0.75205061  0.48690381  0.24040814    -0.04880
N25         N  0.73270118  0.53060899  0.24188859    -0.63060
N26         N  0.79609851  0.48362776  0.25584728    -0.05580
N27         N  0.80753316  0.52580057  0.26785357    -0.62650
N28         N  0.79592877  0.42250135  0.19228014    -0.04480
N29         N  0.80362415  0.43431930  0.16494189    -0.63340
Mn30       Mn  0.84273990  0.41518047  0.25518120     1.10660
C31         C  0.85631314  0.43907635  0.16289131     0.99640
C32         C  0.76712825  0.55436007  0.25917221     0.99720
N33         N  0.62058115  0.39913104  0.24887211    -0.05590
N34         N  0.57154048  0.41078037  0.25633077    -0.60960
N35         N  0.68834171  0.36498662  0.18921109    -0.04910
N36         N  0.68822493  0.35569669  0.16086126    -0.57690
N37         N  0.66646573  0.32948394  0.20335179    -0.06220
N38         N  0.65126484  0.29529596  0.18524583    -0.60530
N39         N  0.64300792  0.43480405  0.23524123    -0.05200
N40         N  0.61031631  0.47135662  0.23321452    -0.57710
Mn41       Mn  0.66225465  0.32928465  0.25067656     1.20190
Mn42       Mn  0.71967544  0.42767987  0.21376184     1.10090
Cl43       Cl  0.75251759  0.37216654  0.25231252    -0.85680
C44         C  0.56618835  0.45617171  0.24661975     0.96650
C45         C  0.66511489  0.31207716  0.15899508     0.96450
N46         N  0.81162361  0.99213469  0.25148851    -0.05840
N47         N  0.81835894  0.03107541  0.23576578    -0.57960
N48         N  0.81258407  0.92613026  0.31235621    -0.05520
N49         N  0.81935629  0.91314691  0.33963602    -0.60090
N50         N  0.85652366  0.91997805  0.29750065    -0.05120
N51         N  0.89406144  0.90246036  0.31439040    -0.57930
N52         N  0.76728389  0.99530629  0.26620840    -0.04790
N53         N  0.74297003  0.03589936  0.26119181    -0.60440
C54         C  0.77492016  0.05760527  0.24214754     0.96340
C55         C  0.87037878  0.89931306  0.34067814     0.96120
N56         N  0.67863337  0.84229785  0.30251385    -0.06020
N57         N  0.64829391  0.82256619  0.32270799    -0.58540
N58         N  0.65848807  0.94370126  0.26852671    -0.04140
N59         N  0.62661272  0.98114758  0.26878483    -0.59790
N60         N  0.63594531  0.90721898  0.25490287    -0.06050
N61         N  0.58816949  0.91923312  0.24567919    -0.58800
N62         N  0.70555065  0.87768123  0.31444160    -0.03790
N63         N  0.69643283  0.88141070  0.34241540    -0.59880
Mn64       Mn  0.73602667  0.93669831  0.29070562     1.18440
C65         C  0.66137231  0.84693788  0.34760415     0.98420
C66         C  0.58321383  0.96550060  0.25433472     0.99080
N67         N  0.89407496  0.85250023  0.24700729    -0.06070
N68         N  0.93793101  0.83678336  0.25953076    -0.62380
N69         N  0.82313059  0.89115604  0.18779275    -0.04880
N70         N  0.81219192  0.90646692  0.16119529    -0.63060
N71         N  0.84719452  0.92516494  0.20282670    -0.05580
N72         N  0.85304094  0.96384171  0.18712689    -0.62650
N73         N  0.87129185  0.81774914  0.23213077    -0.04480
N74         N  0.89857975  0.77779089  0.23417978    -0.63340
Mn75       Mn  0.85494898  0.92322408  0.24985691     1.10660
C76         C  0.93974406  0.79004855  0.25133745     0.99640
C77         C  0.83093198  0.95198016  0.16142757     0.99720
N78         N  0.67381429  0.83247217  0.20517722    -0.05590
N79         N  0.63368348  0.82079280  0.18787432    -0.60960
N80         N  0.76435008  0.76496734  0.23596674    -0.04910
N81         N  0.78504284  0.72176185  0.23758655    -0.57690
N82         N  0.72153556  0.76830878  0.25231657    -0.06220
N83         N  0.71221749  0.72701278  0.26519292    -0.60530
N84         N  0.71817551  0.83145313  0.19017376    -0.05200
N85         N  0.70927625  0.81968113  0.16276787    -0.57710
Mn86       Mn  0.67563626  0.83644539  0.25378557     1.20190
Mn87       Mn  0.79493932  0.82586934  0.21062067     1.10090
Cl88       Cl  0.76512674  0.88034154  0.25120433    -0.85680
C89         C  0.65666250  0.81391535  0.16144397     0.96650
C90         C  0.75251739  0.69863030  0.25593176     0.96450
N91         N  0.15280812  0.18960953  0.26737276    -0.05840
N92         N  0.11971129  0.22627445  0.26760308    -0.57960
N93         N  0.17449429  0.09024048  0.30341650    -0.05520
N94         N  0.14473920  0.07117610  0.32416628    -0.60090
N95         N  0.20090204  0.12653593  0.31459004    -0.05120
N96         N  0.19208837  0.13169904  0.34251565    -0.57930
N97         N  0.13086558  0.15224249  0.25432787    -0.04790
N98         N  0.08232488  0.16293215  0.24554195    -0.60440
C99         C  0.07617555  0.20939674  0.25369855     0.96340
C100        C  0.15776139  0.09708267  0.34855622     0.96120
N101        N  0.26305928  0.01070698  0.23846357    -0.06020
N102        N  0.28234040  0.96693351  0.23994849    -0.58540
N103        N  0.17119280  0.07450010  0.20593204    -0.04140
N104        N  0.13141403  0.06036315  0.18899843    -0.59790
N105        N  0.21572433  0.07278842  0.19102169    -0.06050
N106        N  0.20710966  0.05808242  0.16404929    -0.58800
N107        N  0.21965561  0.01462393  0.25437850    -0.03790
N108        N  0.20864392  0.97332233  0.26675879    -0.59880
Mn109      Mn  0.17237371  0.08186755  0.25454443     1.18440
C110        C  0.24844055  0.94425899  0.25780343     0.98420
C111        C  0.15460446  0.05115145  0.16286070     0.99080
N112        N  0.30765088  0.17446418  0.31188979    -0.06070
N113        N  0.31377892  0.16151305  0.33927057    -0.62380
N114        N  0.30634392  0.23815606  0.24995558    -0.04880
N115        N  0.31304493  0.27624850  0.23355773    -0.63060
N116        N  0.26171706  0.24160991  0.26434589    -0.05580
N117        N  0.23705896  0.28166068  0.25840668    -0.62650
N118        N  0.35185653  0.16781519  0.29728216    -0.04480
N119        N  0.38879301  0.14994555  0.31454124    -0.63340
Mn120      Mn  0.23091777  0.18415079  0.28976528     1.10660
C121        C  0.36458389  0.14706259  0.34077359     0.99640
C122        C  0.26920297  0.30253747  0.23910953     0.99720
N123        N  0.32014036  0.13538316  0.18725158    -0.05590
N124        N  0.31116030  0.14871592  0.15997343    -0.60960
N125        N  0.39302792  0.10153144  0.24642927    -0.04910
N126        N  0.44136376  0.09049610  0.25524561    -0.57690
N127        N  0.37153776  0.06519307  0.23240146    -0.06220
N128        N  0.40452834  0.02856013  0.23143176    -0.60530
N129        N  0.34301646  0.17060140  0.20185593    -0.05200
N130        N  0.34989218  0.20809939  0.18519801    -0.57710
Mn131      Mn  0.29319962  0.07040935  0.21158057     1.20190
Mn132      Mn  0.35076099  0.17035365  0.24920314     1.10090
Cl133      Cl  0.26157241  0.12638282  0.25120454    -0.85680
C134        C  0.32986436  0.19432322  0.15926475     0.96650
C135        C  0.44770182  0.04476281  0.24584338     0.96450
N136        N  0.35392631  0.55494640  0.26306041    -0.05840
N137        N  0.38701570  0.51853259  0.26297459    -0.57960
N138        N  0.33708624  0.65323599  0.30113426    -0.05520
N139        N  0.37084625  0.67129462  0.32069104    -0.60090
N140        N  0.31226607  0.61678305  0.31264701    -0.05120
N141        N  0.32652199  0.61038137  0.33975307    -0.57930
N142        N  0.37496389  0.59214856  0.24993704    -0.04790
N143        N  0.42340949  0.58139990  0.24092503    -0.60440
C144        C  0.42978507  0.53515358  0.24892979     0.96340
C145        C  0.36237872  0.64446814  0.34483498     0.96120
N146        N  0.23982570  0.73174437  0.24003308    -0.06020
N147        N  0.22003824  0.77533436  0.24188580    -0.58540
N148        N  0.32981796  0.67436853  0.20397011    -0.04140
N149        N  0.36398904  0.70014146  0.18874110    -0.59790
N150        N  0.28405528  0.67310357  0.19001100    -0.06050
N151        N  0.28683721  0.69680853  0.16539870    -0.58800
N152        N  0.28445702  0.72901317  0.25500014    -0.03790
N153        N  0.29591798  0.77104399  0.26701148    -0.59880
Mn154      Mn  0.33323669  0.66281213  0.25249126     1.18440
C155        C  0.25494135  0.79921406  0.25895953     0.98420
C156        C  0.33651373  0.71337753  0.16468254     0.99080
N157        N  0.20521710  0.56786898  0.31191115    -0.06070
N158        N  0.20191685  0.58280176  0.33923965    -0.62380
N159        N  0.20120143  0.50316122  0.24954724    -0.04880
N160        N  0.19296466  0.46397923  0.23369000    -0.63060
N161        N  0.24721006  0.50077315  0.26262477    -0.05580
N162        N  0.27141491  0.46041246  0.25631222    -0.62650
N163        N  0.15959495  0.57338807  0.29852203    -0.04480
N164        N  0.12449332  0.59246264  0.31656431    -0.63340
Mn165      Mn  0.27941462  0.55920214  0.28773001     1.10660
C166        C  0.15135982  0.59727818  0.34194499     0.99640
C167        C  0.23750311  0.43820599  0.23812444     0.99720
N168        N  0.18263273  0.60507896  0.18875708    -0.05590
N169        N  0.19258143  0.59047169  0.16164395    -0.60960
N170        N  0.11359627  0.63927211  0.25014488    -0.04910
N171        N  0.06760921  0.65205243  0.26173418    -0.57690
N172        N  0.13431364  0.67513737  0.23601857    -0.06220
N173        N  0.10360936  0.71306803  0.23771170    -0.60530
N174        N  0.16062620  0.57003813  0.20335682    -0.05200
N175        N  0.15532453  0.53147181  0.18685363    -0.57710
Mn176      Mn  0.20947796  0.67112791  0.21304147     1.20190
Mn177      Mn  0.15627791  0.57060087  0.25066399     1.10090
Cl178      Cl  0.24500249  0.61618959  0.25086207    -0.85680
C179        C  0.17541201  0.54438134  0.16107405     0.96650
C180        C  0.06253095  0.69842863  0.25387675     0.96450
N181        N  0.59957135  0.20435231  0.04865772    -0.05840
N182        N  0.63841483  0.22363639  0.06407102    -0.57960
N183        N  0.51089708  0.12488677  0.02319246    -0.05520
N184        N  0.49033714  0.08188497  0.02420520    -0.60090
N185        N  0.55445197  0.12515131  0.00771383    -0.05120
N186        N  0.56471368  0.08172257  0.99758497    -0.57930
N187        N  0.55593638  0.20272114  0.06417253    -0.04790
N188        N  0.56421804  0.22067911  0.09050468    -0.60440
C189        C  0.61583882  0.23284706  0.09015752     0.96340
C190        C  0.52415076  0.05566915  0.00821169     0.96120
N191        N  0.37879688  0.20756201  0.00595964    -0.06020
N192        N  0.33144355  0.19303921  0.99736871    -0.58540
N193        N  0.44627350  0.24933378  0.06526351    -0.04140
N194        N  0.42962954  0.24293091  0.09196592    -0.59790
N195        N  0.41468764  0.27832360  0.05105141    -0.06050
N196        N  0.37341880  0.28893848  0.06797853    -0.58800
N197        N  0.40167905  0.17479885  0.02210435    -0.03790
N198        N  0.37060482  0.13716654  0.02458630    -0.59880
Mn199      Mn  0.47901910  0.18751260  0.04392292     1.18440
C200        C  0.32734322  0.14893999  0.00895893     0.98420
C201        C  0.38434430  0.26722483  0.09368857     0.99080
N202        N  0.59044975  0.18384984  0.95409476    -0.06070
N203        N  0.60494928  0.14705188  0.93774230    -0.62380
N204        N  0.61499996  0.29447480  0.97976741    -0.04880
N205        N  0.64405362  0.33369342  0.97979005    -0.63060
N206        N  0.63745217  0.26133876  0.99551273    -0.05580
N207        N  0.68250677  0.27723084  0.00672169    -0.62650
N208        N  0.56820458  0.21701546  0.93812205    -0.04480
N209        N  0.56717918  0.20358961  0.91041363    -0.63340
Mn210      Mn  0.59732075  0.19247459  0.00149318     1.10660
C211        C  0.59000821  0.15988214  0.91071072     0.99640
C212        C  0.68579954  0.32245232  0.99673890     0.99720
N213        N  0.46393729  0.34464644  0.99826838    -0.05590
N214        N  0.45622758  0.38757407  0.00989693    -0.60960
N215        N  0.46101932  0.27527709  0.93822946    -0.04910
N216        N  0.45274848  0.28813344  0.91109252    -0.57690
N217        N  0.41655384  0.27662066  0.95325667    -0.06220
N218        N  0.37746774  0.29115675  0.93620316    -0.60530
N219        N  0.50680930  0.34490865  0.98183461    -0.05200
N220        N  0.52915765  0.38716990  0.98203115    -0.57710
Mn221      Mn  0.41689156  0.27793393  0.00202273     1.20190
Mn222      Mn  0.53805059  0.28301149  0.95875891     1.10090
Cl223      Cl  0.50718443  0.23533395  0.00126869    -0.85680
C224        C  0.49755293  0.41302360  0.99947491     0.96650
C225        C  0.40068257  0.29722752  0.90989576     0.96450
N226        N  0.59490621  0.70421269  0.05112877    -0.05840
N227        N  0.62957382  0.72662352  0.06811797    -0.57960
N228        N  0.50807885  0.62310470  0.02228427    -0.05520
N229        N  0.48830236  0.57991735  0.02358864    -0.60090
N230        N  0.55410000  0.62330370  0.00919570    -0.05120
N231        N  0.56665729  0.57940888  0.00069812    -0.57930
N232        N  0.54983488  0.69885436  0.06504878    -0.04790
N233        N  0.55299527  0.71704283  0.09161609    -0.60600
C234        C  0.60275196  0.73360199  0.09337172     0.96340
C235        C  0.52497072  0.55334467  0.01005144     0.96120
N236        N  0.37730451  0.71043835  0.00395884    -0.06020
N237        N  0.33033507  0.69765325  0.99365007    -0.58540
N238        N  0.44439423  0.74518183  0.06427087    -0.04140
N239        N  0.43491985  0.74303676  0.09218881    -0.59790
N240        N  0.41743096  0.77923770  0.05175338    -0.06050
N241        N  0.38595929  0.79958192  0.07170965    -0.58800
N242        N  0.39860139  0.67511280  0.01874262    -0.03790
N243        N  0.36652735  0.63774437  0.01874686    -0.59880
Mn244      Mn  0.47512810  0.68463022  0.04244534     1.18440
C245        C  0.32441388  0.65209649  0.00284250     0.98420
C246        C  0.39910375  0.77694554  0.09701994     0.99080
N247        N  0.59049622  0.68055896  0.95617245    -0.06070
N248        N  0.59954537  0.64060051  0.94140574    -0.62380
N249        N  0.61748985  0.79174631  0.97983199    -0.04880
N250        N  0.64841898  0.82944176  0.97712033    -0.63060
N251        N  0.63940282  0.75978065  0.99664231    -0.05580
N252        N  0.68646392  0.77506240  0.00566638    -0.62650
N253        N  0.56769590  0.71258230  0.93947373    -0.04480
N254        N  0.56129501  0.69489352  0.91275320    -0.63340
Mn255      Mn  0.59718958  0.69126724  0.00356964     1.10660
C256        C  0.58101329  0.64985142  0.91449916     0.99640
C257        C  0.69119876  0.81876268  0.99330534     0.99720
N258        N  0.46825128  0.84548110  0.99927562    -0.05590
N259        N  0.45957745  0.88911017  0.00951281    -0.60960
N260        N  0.46320482  0.77913676  0.93833948    -0.04910
N261        N  0.45859436  0.80088722  0.91311231    -0.57690
N262        N  0.41901890  0.78366976  0.95359692    -0.06220
N263        N  0.38457472  0.80953718  0.93866686    -0.60530
N264        N  0.51108552  0.84493533  0.98273960    -0.05200
N265        N  0.53263353  0.88756025  0.98172813    -0.57710
Mn266      Mn  0.41869777  0.78059106  0.00235549     1.20190
Mn267      Mn  0.54018993  0.78152621  0.95936263     1.10090
Cl268      Cl  0.50723457  0.73469892  0.00155159    -0.85680
C269        C  0.50041993  0.91429734  0.99844869     0.96650
C270        C  0.40981070  0.81960476  0.91350025     0.96450
N271        N  0.09094025  0.94846654  0.05012197    -0.05840
N272        N  0.12583259  0.96800754  0.06827731    -0.57960
N273        N  0.00365406  0.87441237  0.01480611    -0.05520
N274        N  0.98010723  0.83323101  0.00980194    -0.60090
N275        N  0.04892482  0.87687273  0.00102363    -0.05120
N276        N  0.05726222  0.83677976  0.98601830    -0.57930
N277        N  0.04537456  0.94291004  0.06349149    -0.04790
N278        N  0.04847137  0.95804725  0.09079836    -0.60440
C279        C  0.09883073  0.97290787  0.09364147     0.96340
C280        C  0.01358609  0.81036495  0.99173544     0.96120
N281        N  0.87519961  0.96416139  0.00131255    -0.06020
N282        N  0.82721875  0.95233142  0.99182873    -0.58540
N283        N  0.93810614  0.99129612  0.06403198    -0.04140
N284        N  0.92203269  0.98449924  0.09074644    -0.59790
N285        N  0.91229238  0.02660111  0.05188608    -0.06050
N286        N  0.87594352  0.04313862  0.07034192    -0.58800
N287        N  0.89663757  0.92758873  0.01488796    -0.03790
N288        N  0.86439880  0.89054246  0.01467294    -0.59880
Mn289      Mn  0.97135336  0.93328015  0.03946062     1.18440
C290        C  0.82158222  0.90606196  0.00010756     0.98420
C291        C  0.88384577  0.01688969  0.09469017     0.99080
N292        N  0.09150175  0.94547908  0.95392911    -0.06070
N293        N  0.10602221  0.91103446  0.93574007    -0.62380
N294        N  0.11748060  0.04939970  0.98747055    -0.04880
N295        N  0.15100550  0.08550600  0.98746024    -0.63060
N296        N  0.13762503  0.01275865  0.00117933    -0.05580
N297        N  0.18574069  0.02307846  0.01078993    -0.62650
N298        N  0.07140814  0.98188764  0.93967015    -0.04480
N299        N  0.07220990  0.97273355  0.91122650    -0.63340
Mn300      Mn  0.09421812  0.94461740  0.00181645     1.10660
C301        C  0.09386189  0.92835206  0.90927541     0.99640
C302        C  0.19307665  0.06872706  0.00219941     0.99720
N303        N  0.96551067  0.10138388  0.00683687    -0.05590
N304        N  0.95549861  0.14223951  0.02063656    -0.60960
N305        N  0.96626271  0.04695061  0.94186041    -0.04910
N306        N  0.96163659  0.07056809  0.91729935    -0.57690
N307        N  0.92050426  0.04571795  0.95573570    -0.06220
N308        N  0.88441506  0.06923476  0.94058000    -0.60530
N309        N  0.01048105  0.10450598  0.99231738    -0.05200
N310        N  0.03189182  0.14706487  0.99613773    -0.57710
Mn311      Mn  0.91681686  0.03512111  0.00374101     1.20190
Mn312      Mn  0.04164974  0.04575136  0.96471318     1.10090
Cl313      Cl  0.00565701  0.98973418  0.00214460    -0.85680
C314        C  0.99768815  0.16990042  0.01398809     0.96650
C315        C  0.91074765  0.08403610  0.91668630     0.96450
N316        N  0.91558297  0.53449680  0.04900224    -0.05840
N317        N  0.88183364  0.51497675  0.06741181    -0.57960
N318        N  0.00047819  0.60786575  0.01247198    -0.05520
N319        N  0.02233244  0.64958817  0.00759041    -0.60090
N320        N  0.95440114  0.60404287  0.99949066    -0.05120
N321        N  0.94383673  0.64373486  0.98511781    -0.57930
N322        N  0.96138025  0.54192508  0.06198221    -0.04790
N323        N  0.95951925  0.52800329  0.08932927    -0.60440
C324        C  0.90973574  0.51198700  0.09254006     0.96340
C325        C  0.98704304  0.67133084  0.99037372     0.96120
N326        N  0.13092948  0.51817736  0.99942335    -0.06020
N327        N  0.17969557  0.52811094  0.99075948    -0.58540
N328        N  0.06918501  0.49594379  0.06258235    -0.04140
N329        N  0.08544389  0.50573898  0.08906559    -0.59790
N330        N  0.09573612  0.46012739  0.05098861    -0.06050
N331        N  0.13308308  0.44649304  0.06961966    -0.58800
N332        N  0.10982985  0.55598905  0.01245325    -0.03790
N333        N  0.14350207  0.59211317  0.01264989    -0.59880
Mn334      Mn  0.03480180  0.55135867  0.03739495     1.18440
C335        C  0.18653480  0.57460432  0.99875743     0.98420
C336        C  0.12476510  0.47493147  0.09350196     0.99080
N337        N  0.91181092  0.53215836  0.95334633    -0.06070
N338        N  0.89483414  0.56520365  0.93540934    -0.62380
N339        N  0.88969468  0.42946766  0.98704611    -0.04880
N340        N  0.85740837  0.39250115  0.98698930    -0.63060
N341        N  0.86854689  0.46614807  0.00078967    -0.05580
N342        N  0.82070104  0.45491083  0.01030364    -0.62650
N343        N  0.93255918  0.49570003  0.93889682    -0.04480
N344        N  0.92962714  0.50340079  0.91045380    -0.63340
Mn345      Mn  0.91060442  0.53542324  0.00096355     1.10660
C346        C  0.90608530  0.54700469  0.90884353     0.99640
C347        C  0.81490371  0.40859007  0.00175549     0.99720
N348        N  0.04218298  0.38126101  0.00640509    -0.05590
N349        N  0.05290524  0.34124264  0.02032289    -0.60960
N350        N  0.03952156  0.43245819  0.94093961    -0.04910
N351        N  0.04347437  0.40712316  0.91661885    -0.57690
N352        N  0.08542431  0.43388494  0.95479418    -0.06220
N353        N  0.12085589  0.40864008  0.93986506    -0.60530
N354        N  0.99736071  0.37675542  0.99173644    -0.05200
N355        N  0.97666736  0.33411334  0.99564750    -0.57710
Mn356      Mn  0.08996921  0.44765346  0.00276080     1.20190
Mn357      Mn  0.96469356  0.43363647  0.96400193     1.10090
Cl358      Cl  0.00040340  0.49201373  0.00097084    -0.85680
C359        C  0.01120641  0.31266984  0.01364473     0.96650
C360        C  0.09396859  0.39262090  0.91615210     0.96450
N361        N  0.82824755  0.14419574  0.80388372    -0.05840
N362        N  0.85608305  0.16621351  0.82470874    -0.57960
N363        N  0.85118087  0.04248883  0.76897229    -0.05520
N364        N  0.88341706  0.00534967  0.76874520    -0.60090
N365        N  0.87311119  0.07901157  0.75571287    -0.05120
N366        N  0.92091625  0.06731905  0.74625586    -0.57930
N367        N  0.80237514  0.10828368  0.81529225    -0.04790
N368        N  0.80989226  0.10608732  0.84344396    -0.60440
C369        C  0.84264395  0.14233901  0.84934419     0.96340
C370        C  0.92645057  0.02119927  0.75442956     0.96120
N371        N  0.69952824  0.99094062  0.75070626    -0.06020
N372        N  0.69299943  0.95122635  0.73511165    -0.58540
N373        N  0.69632472  0.05773511  0.81210434    -0.04140
N374        N  0.68842920  0.07039455  0.83954311    -0.59790
N375        N  0.65247224  0.06243381  0.79697591    -0.06050
N376        N  0.61384226  0.07851629  0.81380926    -0.58800
N377        N  0.74378606  0.98877187  0.76560310    -0.03790
N378        N  0.76833774  0.94803288  0.76080282    -0.59880
Mn379      Mn  0.77346380  0.04836300  0.79083670     1.18440
C380        C  0.73654574  0.92529539  0.74168586     0.98420
C381        C  0.63680094  0.08240912  0.84033195     0.99080
N382        N  0.83363600  0.15268981  0.70640514    -0.06070
N383        N  0.87309019  0.16636414  0.68941992    -0.62380
N384        N  0.74158477  0.21818686  0.73772636    -0.04880
N385        N  0.72079637  0.26139669  0.73937431    -0.63060
N386        N  0.78451200  0.21570885  0.75407412    -0.05580
N387        N  0.79386205  0.25744923  0.76696835    -0.62650
N388        N  0.78922222  0.15231345  0.69132073    -0.04480
N389        N  0.79749532  0.16489701  0.66421144    -0.63340
Mn390      Mn  0.83179512  0.14899512  0.75508215     1.10660
C391        C  0.84971669  0.17280271  0.66309465     0.99640
C392        C  0.75341406  0.28520897  0.75779131     0.99720
N393        N  0.61364388  0.12822575  0.74707542    -0.05590
N394        N  0.56913023  0.14292959  0.75947826    -0.60960
N395        N  0.68547018  0.09059236  0.68762120    -0.04910
N396        N  0.69486833  0.07596431  0.66047113    -0.57690
N397        N  0.66268286  0.05606727  0.70221877    -0.06220
N398        N  0.65629481  0.01764341  0.68569000    -0.60530
N399        N  0.63561013  0.16336382  0.73277890    -0.05200
N400        N  0.60705773  0.20263483  0.73508707    -0.57710
Mn401      Mn  0.65466533  0.05858976  0.74935665     1.20190
Mn402      Mn  0.71229458  0.15654330  0.71152300     1.10090
Cl403      Cl  0.74333296  0.10334063  0.75165054    -0.85680
C404        C  0.56601246  0.18948124  0.75180832     0.96650
C405        C  0.67665402  0.03023516  0.65987377     0.96450
N406        N  0.66306818  0.57571180  0.80146259    -0.05840
N407        N  0.62811160  0.55956823  0.82064998    -0.57960
N408        N  0.64588133  0.67391960  0.76518040    -0.05520
N409        N  0.61179664  0.70986515  0.76655582    -0.60090
N410        N  0.62437317  0.63679423  0.75151539    -0.05120
N411        N  0.57512804  0.64705410  0.74364108    -0.57930
N412        N  0.68976942  0.61120219  0.81341862    -0.04790
N413        N  0.67552844  0.61872308  0.84052303    -0.60440
C414        C  0.63773966  0.58636746  0.84509813     0.96340
C415        C  0.56805961  0.69300082  0.75278231     0.96120
N416        N  0.80134091  0.72139291  0.74960708    -0.06020
N417        N  0.81001824  0.76071368  0.73457204    -0.58540
N418        N  0.79993133  0.65597293  0.81149985    -0.04140
N419        N  0.80571539  0.63990394  0.83832317    -0.59790
N420        N  0.84453632  0.65083006  0.79699671    -0.06050
N421        N  0.88117018  0.63125527  0.81363169    -0.58800
N422        N  0.75642576  0.72500661  0.76374789    -0.03790
N423        N  0.73352585  0.76632510  0.75894453    -0.59880
Mn424      Mn  0.72344340  0.66762261  0.78869684     1.18440
C425        C  0.76699166  0.78791223  0.74064446     0.98420
C426        C  0.85667807  0.62534523  0.83943085     0.99080
N427        N  0.66830253  0.55393619  0.70416646    -0.06070
N428        N  0.63278685  0.52933079  0.68873450    -0.62380
N429        N  0.75756025  0.49501138  0.73934726    -0.04880
N430        N  0.77720809  0.45157939  0.74161015    -0.63060
N431        N  0.71328459  0.49905515  0.75448680    -0.05580
N432        N  0.70193006  0.45801492  0.76706710    -0.62650
N433        N  0.71384411  0.55356630  0.69000685    -0.04480
N434        N  0.70954439  0.53002216  0.66505957    -0.63340
Mn435      Mn  0.66572884  0.56579237  0.75277033     1.10660
C436        C  0.65925606  0.51516347  0.66439610     0.99640
C437        C  0.74261202  0.42919045  0.75909577     0.99720
N438        N  0.88784197  0.58396223  0.74755849    -0.05590
N439        N  0.93636488  0.57232434  0.75591511    -0.60960
N440        N  0.81994392  0.61565835  0.68749968    -0.04910
N441        N  0.82044311  0.62430881  0.65916229    -0.57690
N442        N  0.84129722  0.65178285  0.70194756    -0.06220
N443        N  0.85646928  0.68561940  0.68413454    -0.60530
N444        N  0.86559251  0.54769148  0.73393082    -0.05200
N445        N  0.89779291  0.51067143  0.73270119    -0.57710
Mn446      Mn  0.84547771  0.65323617  0.74932214     1.20190
Mn447      Mn  0.78937271  0.55310810  0.71221433     1.10090
Cl448      Cl  0.75518260  0.60994230  0.75038153    -0.85680
C449        C  0.94150186  0.52626724  0.74661216     0.96650
C450        C  0.84327500  0.66814095  0.65765155     0.96450
N451        N  0.17084712  0.32631257  0.80312562    -0.05840
N452        N  0.14445271  0.30456803  0.82424139    -0.57960
N453        N  0.15107772  0.42457894  0.76531042    -0.05520
N454        N  0.11859465  0.46140528  0.76510230    -0.60090
N455        N  0.12936659  0.38687663  0.75248079    -0.05120
N456        N  0.08100880  0.39774380  0.74342763    -0.57930
N457        N  0.19480501  0.36409343  0.81408530    -0.04790
N458        N  0.18734522  0.36820443  0.84216454    -0.60440
C459        C  0.15680187  0.33098901  0.84852251     0.96340
C460        C  0.07543928  0.44451825  0.75123616     0.96120
N461        N  0.30328386  0.47501455  0.75068813    -0.06020
N462        N  0.31143093  0.51399726  0.73520250    -0.58540
N463        N  0.29989596  0.41336887  0.81346186    -0.04140
N464        N  0.30232374  0.39855783  0.84060697    -0.59790
N465        N  0.34521617  0.40601126  0.80010831    -0.06050
N466        N  0.37911947  0.38541994  0.81806560    -0.58800
N467        N  0.25778808  0.47822373  0.76423748    -0.03790
N468        N  0.23391921  0.51877020  0.75865940    -0.59880
Mn469      Mn  0.22592286  0.42110277  0.78936791     1.18440
C470        C  0.26738861  0.54044134  0.74043876     0.98420
C471        C  0.35190099  0.38187255  0.84334806     0.99080
N472        N  0.17329841  0.30400717  0.70598969    -0.06070
N473        N  0.13790818  0.27915563  0.69064278    -0.62380
N474        N  0.26291166  0.24584049  0.74137016    -0.04880
N475        N  0.28209041  0.20211589  0.74280096    -0.63060
N476        N  0.21843360  0.24939364  0.75629318    -0.05580
N477        N  0.20637741  0.20773081  0.76791121    -0.62650
N478        N  0.21892456  0.30369861  0.69191574    -0.04480
N479        N  0.21484557  0.27974900  0.66708166    -0.63340
Mn480      Mn  0.17100275  0.31605810  0.75448106     1.10660
C481        C  0.16453899  0.26475797  0.66642690     0.99640
C482        C  0.24696009  0.17900889  0.75961280     0.99720
N483        N  0.39010988  0.33769731  0.75182042    -0.05590
N484        N  0.43635247  0.32546222  0.76316179    -0.60960
N485        N  0.32419983  0.36743412  0.69014100    -0.04910
N486        N  0.32321632  0.37619070  0.66182215    -0.57690
N487        N  0.34520826  0.40396603  0.70440277    -0.06220
N488        N  0.35857860  0.43819137  0.68639213    -0.60530
N489        N  0.36896767  0.30105801  0.73797633    -0.05200
N490        N  0.39964064  0.26318204  0.73960161    -0.57710
Mn491      Mn  0.34821914  0.40693611  0.75198526     1.20190
Mn492      Mn  0.29414330  0.30467577  0.71476339     1.10090
Cl493      Cl  0.25940405  0.36214619  0.75235115    -0.85680
C494        C  0.44110229  0.27865974  0.75548898     0.96650
C495        C  0.34479428  0.42046405  0.66003620     0.96450
N496        N  0.33027695  0.89297877  0.80282319    -0.05840
N497        N  0.36137983  0.91190277  0.82341747    -0.57960
N498        N  0.35056334  0.79058471  0.76862967    -0.05520
N499        N  0.38341941  0.75366450  0.76952659    -0.60090
N500        N  0.37289561  0.82643571  0.75483446    -0.05120
N501        N  0.42125275  0.81450107  0.74623672    -0.57930
N502        N  0.30187657  0.85885670  0.81438629    -0.04790
N503        N  0.31037288  0.85538453  0.84236723    -0.60440
C504        C  0.34687471  0.88848501  0.84811085     0.96340
C505        C  0.42716785  0.76882746  0.75527597     0.96120
N506        N  0.19610558  0.74223146  0.75128242    -0.06020
N507        N  0.18969876  0.70264291  0.73550904    -0.58540
N508        N  0.19430206  0.81306654  0.81185712    -0.04140
N509        N  0.18794242  0.83078884  0.83848415    -0.59790
N510        N  0.15050436  0.81823062  0.79665599    -0.06050
N511        N  0.11377519  0.83974595  0.81268435    -0.58800
N512        N  0.24025139  0.73981531  0.76624394    -0.03790
N513        N  0.26476509  0.69909420  0.76136312    -0.59880
Mn514      Mn  0.27153981  0.79945093  0.79052613     1.18440
C515        C  0.23310533  0.67653150  0.74214167     0.98420
C516        C  0.13749281  0.84660933  0.83885503     0.99080
N517        N  0.33368107  0.90053813  0.70493130    -0.06070
N518        N  0.37327429  0.91364461  0.68783432    -0.62380
N519        N  0.24259055  0.96764791  0.73626173    -0.04880
N520        N  0.22252807  0.01114820  0.73795938    -0.63060
N521        N  0.28572675  0.96461427  0.75248321    -0.05580
N522        N  0.29580928  0.00626976  0.76531704    -0.62650
N523        N  0.28913206  0.90096547  0.68994182    -0.04480
N524        N  0.29754641  0.91352986  0.66280967    -0.63340
Mn525      Mn  0.33242010  0.89720496  0.75373577     1.10660
C526        C  0.34992812  0.92063529  0.66154366     0.99640
C527        C  0.25574781  0.03457486  0.75623947     0.99720
N528        N  0.11135767  0.87985448  0.74470411    -0.05590
N529        N  0.06376408  0.89302167  0.75377562    -0.60960
N530        N  0.18415219  0.84003761  0.68670179    -0.04910
N531        N  0.19283265  0.82484692  0.65959128    -0.57690
N532        N  0.16096449  0.80606716  0.70163259    -0.06220
N533        N  0.15356892  0.76749510  0.68534085    -0.60530
N534        N  0.13381652  0.91466007  0.73034294    -0.05200
N535        N  0.10231890  0.95228411  0.72931053    -0.57710
Mn536      Mn  0.15251077  0.81060479  0.74884573     1.20190
Mn537      Mn  0.21192418  0.90637216  0.71008961     1.10090
Cl538      Cl  0.24241060  0.85360030  0.75067946    -0.85680
C539        C  0.05895334  0.93835071  0.74405601     0.96650
C540        C  0.17374558  0.77940212  0.65932579     0.96450
N541        N  0.40749253  0.04752221  0.45578727    -0.05840
N542        N  0.39296318  0.08378670  0.43941459    -0.57960
N543        N  0.38254649  0.93885147  0.48213861    -0.05520
N544        N  0.35011158  0.90188082  0.48017412    -0.60090
N545        N  0.36188934  0.97283016  0.49844028    -0.05120
N546        N  0.31462478  0.95986713  0.50792442    -0.57930
N547        N  0.42879344  0.01336411  0.43957729    -0.04790
N548        N  0.42888790  0.02561819  0.41181252    -0.60440
C549        C  0.40654365  0.06962510  0.41213281     0.96340
C550        C  0.30807210  0.91539983  0.49642785     0.96120
N551        N  0.53496344  0.88842643  0.49924765    -0.06020
N552        N  0.54381028  0.84621455  0.51085971    -0.58540
N553        N  0.53506996  0.95006799  0.43807241    -0.04140
N554        N  0.54021213  0.92744986  0.41281617    -0.59790
N555        N  0.58036982  0.94965755  0.45254277    -0.06050
N556        N  0.61639460  0.92611436  0.43710057    -0.58800
N557        N  0.49069453  0.88727717  0.48388775    -0.03790
N558        N  0.46844273  0.84503544  0.48484585    -0.59880
Mn559      Mn  0.45912878  0.94761779  0.46030517     1.18440
C560        C  0.50163632  0.82025544  0.50165535     0.98420
C561        C  0.59076632  0.91293187  0.41243531     0.99080
N562        N  0.40812448  0.03041337  0.55188762    -0.06070
N563        N  0.37406012  0.00815874  0.56896620    -0.62380
N564        N  0.49260839  0.11107211  0.52231539    -0.04880
N565        N  0.51213477  0.15458278  0.52256401    -0.63060
N566        N  0.44703251  0.10929905  0.50866497    -0.05580
N567        N  0.43441453  0.15209233  0.49896066    -0.62650
N568        N  0.45367910  0.03568518  0.56553480    -0.04480
N569        N  0.45141978  0.01773219  0.59191941    -0.63340
Mn570      Mn  0.40407951  0.04119499  0.50394456     1.10660
C571        C  0.40166194  0.00130860  0.59395854     0.99640
C572        C  0.47557831  0.17949828  0.50795209     0.99720
N573        N  0.62362395  0.02520664  0.50260548    -0.05590
N574        N  0.67091827  0.03825852  0.49317304    -0.60960
N575        N  0.56185497  0.99001983  0.56367224    -0.04910
N576        N  0.57904579  0.99527943  0.59044830    -0.57690
N577        N  0.58896646  0.95722736  0.54944580    -0.06220
N578        N  0.62765181  0.94142631  0.56652415    -0.60530
N579        N  0.60220696  0.06002355  0.51829628    -0.05200
N580        N  0.63416718  0.09730033  0.51969583    -0.57710
Mn581      Mn  0.58339505  0.95441872  0.50083324     1.20190
Mn582      Mn  0.52730116  0.05001226  0.54252237     1.10090
Cl583      Cl  0.49384123  0.99840505  0.50161717    -0.85680
C584        C  0.67650585  0.08347458  0.50381690     0.96650
C585        C  0.61964766  0.96500042  0.59227967     0.96450
N586        N  0.40874018  0.55465757  0.45580180    -0.05840
N587        N  0.40007043  0.59448966  0.44145059    -0.57960
N588        N  0.37983296  0.44309120  0.47804853    -0.05520
N589        N  0.34859004  0.40523102  0.47611587    -0.60090
N590        N  0.35852799  0.47612899  0.49485219    -0.05120
N591        N  0.31208488  0.46153915  0.50472107    -0.57930
N592        N  0.43081815  0.52209013  0.43876683    -0.04790
N593        N  0.43731388  0.53931794  0.41223342    -0.60440
C594        C  0.41828574  0.58462228  0.41444203     0.96340
C595        C  0.30651077  0.41721539  0.49281696     0.96120
N596        N  0.53038655  0.38933673  0.49648234    -0.06020
N597        N  0.53846566  0.34618559  0.50695715    -0.58540
N598        N  0.53606247  0.45889122  0.43788260    -0.04140
N599        N  0.54508627  0.44675827  0.41048017    -0.59790
N600        N  0.58015766  0.45683727  0.45328910    -0.06050
N601        N  0.61972861  0.44295350  0.43628087    -0.58800
N602        N  0.48751635  0.38947935  0.47991768    -0.03790
N603        N  0.46552810  0.34689902  0.47899503    -0.59880
Mn604      Mn  0.45800050  0.45319839  0.45775294     1.18440
C605        C  0.49751386  0.32064624  0.49585203     0.98420
C606        C  0.59727797  0.43771674  0.40962084     0.99080
N607        N  0.39992864  0.53121465  0.54998382    -0.06070
N608        N  0.36251501  0.51048362  0.56550150    -0.62380
N609        N  0.48953586  0.61091863  0.52476342    -0.04880
N610        N  0.51022299  0.65378679  0.52667635    -0.63060
N611        N  0.44474422  0.61113626  0.51034084    -0.05580
N612        N  0.43386273  0.65488497  0.50166514    -0.62650
N613        N  0.44414593  0.53417075  0.56508256    -0.04480
N614        N  0.43758913  0.51568063  0.59114862    -0.63340
Mn615      Mn  0.40089891  0.54413393  0.50287378     1.10660
C616        C  0.38652720  0.50173962  0.59123725     0.99640
C617        C  0.47524084  0.68048212  0.51223917     0.99720
N618        N  0.62045022  0.52422543  0.50631378    -0.05590
N619        N  0.66728901  0.53731898  0.49630244    -0.60960
N620        N  0.55038864  0.48661502  0.56443837    -0.04910
N621        N  0.55880573  0.48696102  0.59252170    -0.57690
N622        N  0.57793782  0.45334031  0.55100944    -0.06220
N623        N  0.60862907  0.43174005  0.57049261    -0.60530
N624        N  0.59902152  0.55900482  0.52197532    -0.05200
N625        N  0.63105137  0.59648901  0.52288477    -0.57710
Mn626      Mn  0.57904491  0.45475192  0.50185195     1.20190
Mn627      Mn  0.52090756  0.54857781  0.54418134     1.10090
Cl628      Cl  0.49020954  0.49991346  0.50133425    -0.85680
C629        C  0.67330569  0.58251687  0.50671947     0.96650
C630        C  0.59449198  0.45270377  0.59643531     0.96450
N631        N  0.91057569  0.30309675  0.45859854    -0.05840
N632        N  0.90255194  0.34292899  0.44411566    -0.57960
N633        N  0.88202732  0.19301208  0.48204814    -0.05520
N634        N  0.85009418  0.15580177  0.47963366    -0.60090
N635        N  0.86130607  0.22606735  0.49901633    -0.05120
N636        N  0.81428696  0.21219910  0.50845549    -0.57930
N637        N  0.93267117  0.27027330  0.44169272    -0.04790
N638        N  0.93964011  0.28734814  0.41513574    -0.60440
C639        C  0.92093060  0.33281065  0.41716677     0.96340
C640        C  0.80813347  0.16816437  0.49619424     0.96120
N641        N  0.03121637  0.13804960  0.50031410    -0.06020
N642        N  0.03965187  0.09471766  0.51043274    -0.58540
N643        N  0.03630308  0.20247596  0.44003550    -0.04140
N644        N  0.04149740  0.18041332  0.41459357    -0.59790
N645        N  0.08072958  0.19944519  0.45519875    -0.06050
N646        N  0.11612817  0.17462319  0.44001203    -0.58800
N647        N  0.98790878  0.13836937  0.48411367    -0.03790
N648        N  0.96584855  0.09588589  0.48314497    -0.59880
Mn649      Mn  0.95932756  0.20138864  0.46122085     1.18440
C650        C  0.99821550  0.06944499  0.49961120     0.98420
C651        C  0.09111080  0.16342294  0.41478337     0.99080
N652        N  0.90691830  0.28227317  0.55369828    -0.06070
N653        N  0.87243379  0.26056256  0.57075142    -0.62380
N654        N  0.99381684  0.36180964  0.52508753    -0.04880
N655        N  0.01359008  0.40507333  0.52639367    -0.63060
N656        N  0.94779140  0.36114645  0.51192546    -0.05580
N657        N  0.93512638  0.40455073  0.50340656    -0.62650
N658        N  0.95222169  0.28784130  0.56752759    -0.04480
N659        N  0.94941309  0.27066532  0.59405071    -0.63340
Mn660      Mn  0.90421357  0.29388746  0.50604592     1.10660
C661        C  0.89964383  0.25439828  0.59593873     0.99640
C662        C  0.97672380  0.43095023  0.51280695     0.99720
N663        N  0.12346298  0.27301094  0.50603865    -0.05590
N664        N  0.17023625  0.28562305  0.49561447    -0.60960
N665        N  0.05698376  0.23973335  0.56590300    -0.04910
N666        N  0.06588637  0.24077386  0.59393948    -0.57690
N667        N  0.08214946  0.20460802  0.55284361    -0.06220
N668        N  0.11156799  0.18203581  0.57250135    -0.60530
N669        N  0.10254427  0.30872133  0.52116429    -0.05200
N670        N  0.13453741  0.34609905  0.52132896    -0.57710
Mn671      Mn  0.08115788  0.20298015  0.50371338     1.20190
Mn672      Mn  0.02659137  0.30048115  0.54488325     1.10090
Cl673      Cl  0.99315734  0.24962634  0.50371170    -0.85680
C674        C  0.17637436  0.33137079  0.50525395     0.96650
C675        C  0.09923117  0.20475488  0.59817761     0.96450
N676        N  0.90849286  0.79710617  0.45379499    -0.05840
N677        N  0.89565274  0.83394618  0.43759036    -0.57960
N678        N  0.88147150  0.68771908  0.47946395    -0.05520
N679        N  0.84907917  0.65053339  0.47802835    -0.60090
N680        N  0.86048425  0.72218484  0.49529345    -0.05120
N681        N  0.81336670  0.70931279  0.50503495    -0.57930
N682        N  0.92961193  0.76282675  0.43768106    -0.04790
N683        N  0.93154150  0.77557959  0.41007127    -0.60440
C684        C  0.91030911  0.81995534  0.41051971     0.96340
C685        C  0.80682978  0.66448364  0.49414200     0.96120
N686        N  0.03496985  0.63805238  0.49708585    -0.06020
N687        N  0.04330816  0.59623360  0.50925985    -0.58540
N688        N  0.03612157  0.70308635  0.43696618    -0.04140
N689        N  0.04417176  0.68885967  0.40983822    -0.59790
N690        N  0.08102906  0.70363230  0.45166753    -0.06050
N691        N  0.12017686  0.68928615  0.43452201    -0.58800
N692        N  0.99104731  0.63665839  0.48144218    -0.03790
N693        N  0.96859557  0.59451634  0.48267961    -0.59880
Mn694      Mn  0.95927109  0.69718427  0.45817974     1.18440
C695        C  0.00134895  0.57015465  0.49998466     0.98420
C696        C  0.09657454  0.68114487  0.40844904     0.99080
N697        N  0.90303562  0.77958250  0.54871277    -0.06070
N698        N  0.86572469  0.75875105  0.56420492    -0.62380
N699        N  0.99074748  0.85890792  0.52220974    -0.04880
N700        N  0.01088274  0.90213732  0.52334982    -0.63060
N701        N  0.94635720  0.85799193  0.50738097    -0.05580
N702        N  0.93508813  0.90120491  0.49786971    -0.62650
N703        N  0.94747711  0.78202467  0.56368168    -0.04480
N704        N  0.94108369  0.76305544  0.58964863    -0.63340
Mn705      Mn  0.90282026  0.79049118  0.50139699     1.10660
C706        C  0.88987456  0.74939881  0.58976647     0.99640
C707        C  0.97593768  0.92783057  0.50812677     0.99720
N708        N  0.12218710  0.77456956  0.50333325    -0.05590
N709        N  0.16925287  0.78808962  0.49389457    -0.60960
N710        N  0.05745517  0.73629451  0.56327646    -0.04910
N711        N  0.07411414  0.74127724  0.59018910    -0.57690
N712        N  0.08623350  0.70493668  0.54879171    -0.06220
N713        N  0.12542561  0.69011749  0.56586048    -0.60530
N714        N  0.10053060  0.80862480  0.51949964    -0.05200
N715        N  0.13233265  0.84609075  0.52119357    -0.57710
Mn716      Mn  0.08255280  0.70426908  0.50002928     1.20190
Mn717      Mn  0.02375360  0.79717164  0.54245060     1.10090
Cl718      Cl  0.99241688  0.74728302  0.50033656    -0.85680
C719        C  0.17473398  0.83291370  0.50502837     0.96650
C720        C  0.11610351  0.71252503  0.59185844     0.96450
C721        C  0.99246982  0.52174057  0.50632292    -0.12990
C722        C  0.98248600  0.48052104  0.50913501    -0.14550
C723        C  0.99044642  0.01967649  0.50310027    -0.12990
C724        C  0.98176344  0.97779300  0.50461126    -0.14550
C725        C  0.26099547  0.38643137  0.49703005    -0.12990
C726        C  0.22287223  0.36062354  0.50036437    -0.14550
C727        C  0.75975374  0.63557253  0.49851049    -0.12990
C728        C  0.72024214  0.61155062  0.50216421    -0.14550
C729        C  0.22166822  0.86202490  0.50187919    -0.12990
C730        C  0.26091285  0.88663527  0.49968095    -0.14550
C731        C  0.49327457  0.77136014  0.50706445    -0.12990
C732        C  0.48256192  0.73007852  0.50903368    -0.14550
C733        C  0.48067497  0.22933786  0.50325128    -0.12990
C734        C  0.48902263  0.27111847  0.50040954    -0.14550
C735        C  0.72340282  0.11257401  0.50083055    -0.12990
C736        C  0.76178689  0.13833991  0.49916861    -0.14550
C737        C  0.38504942  0.97145004  0.61757612    -0.12990
C738        C  0.37282932  0.94655633  0.63781446    -0.14550
C739        C  0.17070995  0.74777980  0.63422539    -0.12990
C740        C  0.15457610  0.72362694  0.61401172    -0.14550
C741        C  0.36483487  0.47199624  0.61359733    -0.12990
C742        C  0.35278107  0.44663183  0.63362062    -0.14550
C743        C  0.14624322  0.22977888  0.64524930    -0.12990
C744        C  0.13014131  0.20725100  0.62434523    -0.14550
C745        C  0.25803675  0.58817221  0.73117829    -0.12990
C746        C  0.24456162  0.62932336  0.73184494    -0.14550
C747        C  0.24853215  0.12809266  0.76341677    -0.12990
C748        C  0.25192381  0.08506521  0.76223726    -0.14550
C749        C  0.64121995  0.48001043  0.64325189    -0.12990
C750        C  0.62569921  0.45687169  0.62244838    -0.14550
C751        C  0.85383173  0.69391727  0.63141058    -0.12990
C752        C  0.86775080  0.71939306  0.61183317    -0.14550
C753        C  0.98898779  0.49786689  0.74844216    -0.12990
C754        C  0.02754289  0.47223679  0.74884636    -0.14550
C755        C  0.47624309  0.74129805  0.75272172    -0.12990
C756        C  0.51772593  0.71885058  0.75184910    -0.14550
C757        C  0.65846881  0.97492538  0.61438054    -0.12990
C758        C  0.67453335  0.99888913  0.63466458    -0.14550
C759        C  0.87197608  0.19921899  0.63954964    -0.12990
C760        C  0.88329495  0.22446114  0.61940639    -0.14550
C761        C  0.01244995  0.96781284  0.74766708    -0.12990
C762        C  0.97365590  0.99287429  0.75029491    -0.14550
C763        C  0.74694047  0.87752478  0.73214704    -0.12990
C764        C  0.75873514  0.83598153  0.73177497    -0.14550
C765        C  0.74895106  0.33567653  0.76352981    -0.12990
C766        C  0.74492105  0.37864661  0.76405948    -0.14550
C767        C  0.52304520  0.22124872  0.75871440    -0.12990
C768        C  0.48689779  0.24933589  0.76001709    -0.14550
C769        C  0.89297924  0.57195115  0.88246014    -0.12990
C770        C  0.87798750  0.59662832  0.86259830    -0.14550
C771        C  0.11244335  0.35660681  0.89592160    -0.12990
C772        C  0.12845549  0.33351817  0.87536513    -0.14550
C773        C  0.89084470  0.11781520  0.89594073    -0.12990
C774        C  0.87293681  0.13949281  0.87559705    -0.14550
C775        C  0.10382110  0.90186411  0.88254667    -0.12990
C776        C  0.11648553  0.87652486  0.86207296    -0.14550
C777        C  0.99372157  0.72008754  0.98220531    -0.12990
C778        C  0.00462270  0.76193318  0.98268052    -0.14550
C779        C  0.00743511  0.26286145  0.02042506    -0.12990
C780        C  0.00209031  0.22005023  0.02052426    -0.14550
C781        C  0.58684822  0.61690374  0.89019260    -0.12990
C782        C  0.60279269  0.59422816  0.86934834    -0.14550
C783        C  0.39370203  0.85607058  0.89329181    -0.12990
C784        C  0.37834160  0.88103597  0.87365547    -0.14550
C785        C  0.27678384  0.62374238  0.99877770    -0.12990
C786        C  0.23628069  0.60040549  0.99736405    -0.14550
C787        C  0.73674829  0.85009966  0.99574153    -0.12990
C788        C  0.77423173  0.87722957  0.99687756    -0.14550
C789        C  0.60019854  0.13128507  0.88524478    -0.12990
C790        C  0.61370764  0.10749161  0.86453195    -0.14550
C791        C  0.37892093  0.32541911  0.88677879    -0.12990
C792        C  0.36725637  0.35175904  0.86711843    -0.14550
C793        C  0.28083769  0.11949927  0.00704331    -0.12990
C794        C  0.24142570  0.09524287  0.00560573    -0.14550
C795        C  0.50734976  0.46207740  0.00488089    -0.12990
C796        C  0.51879937  0.50337983  0.00676149    -0.14550
C797        C  0.51730403  0.00586249  0.00408401    -0.12990
C798        C  0.50809762  0.96408756  0.00221457    -0.14550
C799        C  0.76712586  0.38090476  0.00405739    -0.12990
C800        C  0.72947352  0.35441223  0.00223386    -0.14550
C801        C  0.35314187  0.74857535  0.14360380    -0.12990
C802        C  0.36791013  0.77186093  0.12299145    -0.14550
C803        C  0.17572143  0.51218027  0.13624294    -0.12990
C804        C  0.16176434  0.48663064  0.11620073    -0.14550
C805        C  0.39684208  0.63887944  0.36946970    -0.12990
C806        C  0.41255653  0.61712746  0.39040898    -0.14550
C807        C  0.11947662  0.65291135  0.38538729    -0.12990
C808        C  0.13372909  0.62661579  0.36590768    -0.14550
C809        C  0.33145681  0.22515416  0.13413557    -0.12990
C810        C  0.34629350  0.25103010  0.11475865    -0.14550
C811        C  0.13061136  0.02502071  0.13903906    -0.12990
C812        C  0.11663897  0.00079701  0.11840631    -0.14550
C813        C  0.25061476  0.89350631  0.26283501    -0.12990
C814        C  0.25305543  0.85034033  0.26325195    -0.14550
C815        C  0.24656831  0.39052948  0.22820533    -0.12990
C816        C  0.25886891  0.34919387  0.22854049    -0.14550
C817        C  0.39692620  0.09778475  0.38645743    -0.12990
C818        C  0.38525551  0.12125919  0.36539084    -0.14550
C819        C  0.10916190  0.12781042  0.39406915    -0.12990
C820        C  0.12634967  0.10365263  0.37421262    -0.14550
C821        C  0.61995269  0.76382084  0.11701429    -0.12990
C822        C  0.63288729  0.78879732  0.13739242    -0.14550
C823        C  0.84634088  0.00821222  0.11728386    -0.12990
C824        C  0.83118298  0.98406517  0.13719246    -0.14550
C825        C  0.98172950  0.75723683  0.25802461    -0.12990
C826        C  0.01716875  0.72835802  0.25895127    -0.14550
C827        C  0.49581413  0.01737791  0.24894808    -0.12990
C828        C  0.53567909  0.99362903  0.25103512    -0.14550
C829        C  0.62854903  0.85340426  0.37262846    -0.12990
C830        C  0.60987615  0.87751922  0.39201646    -0.14550
C831        C  0.89150913  0.87304997  0.36464804    -0.12990
C832        C  0.90268628  0.84871434  0.38522392    -0.14550
C833        C  0.65458324  0.28623673  0.13255883    -0.12990
C834        C  0.63993464  0.26141229  0.11255211    -0.14550
C835        C  0.89332586  0.48512715  0.11748336    -0.12990
C836        C  0.87998106  0.46238918  0.13842017    -0.14550
C837        C  0.02709190  0.23628459  0.25115302    -0.12990
C838        C  0.98627266  0.25941056  0.25100010    -0.14550
C839        C  0.75826835  0.64843540  0.26232384    -0.12990
C840        C  0.76411650  0.60552375  0.26351506    -0.14550
C841        C  0.76380013  0.10459299  0.23193147    -0.12990
C842        C  0.75046611  0.14581029  0.23130673    -0.14550
C843        C  0.47848406  0.50833884  0.24706778    -0.12990
C844        C  0.51794662  0.48380565  0.24731710    -0.14550
C845        C  0.62058500  0.41103565  0.38592791    -0.12990
C846        C  0.63535829  0.38587640  0.36596717    -0.14550
C847        C  0.91668698  0.36575186  0.39317465    -0.12990
C848        C  0.90224356  0.38884556  0.37245038    -0.14550
loop_ 
_geom_bond_atom_site_label_1 
_geom_bond_atom_site_label_2 
_geom_bond_distance 
_geom_bond_site_symmetry_2 
_ccdc_geom_bond_type 
N1            N2   1.333       .  A
N1            N7   1.315       .  A
N1          Mn30   2.255       .  S
N2            C9   1.365       .  A
N3            N5   1.319       .  A
N3            N4   1.323       .  A
N3          Mn19   2.225       .  S
N4           C10   1.353       .  A
N5            N6   1.326       .  A
N5          Mn30   2.233       .  S
N6           C10   1.357       .  A
N7            N8   1.308       .  A
N7          Mn19   2.136       .  S
N8            C9   1.333       .  A
C9          C848   1.438       .  S
C10         C838   1.456       .  S
N11          N17   1.312       .  A
N11          N12   1.326       .  A
N11         Mn41   2.222       .  S
N12          C20   1.357       .  A
N13          N14   1.320       .  A
N13          N15   1.316       .  A
N13         Mn19   2.196       .  S
N14          C21   1.346       .  A
N15          N16   1.323       .  A
N15         Mn41   2.201       .  S
N16          C21   1.352       .  A
N17          N18   1.313       .  A
N17         Mn19   2.144       .  S
N18          C20   1.340       .  A
Mn19        Cl43   2.504       .  S
C20         C842   1.428       .  S
C21         C846   1.438       .  S
N22          N23   1.326       .  A
N22          N28   1.318       .  A
N22         Mn30   2.237       .  S
N23          C31   1.357       .  A
N24          N26   1.322       .  A
N24          N25   1.318       .  A
N24         Mn42   2.203       .  S
N25          C32   1.346       .  A
N26          N27   1.327       .  A
N26         Mn30   2.248       .  S
N27          C32   1.359       .  A
N28          N29   1.316       .  A
N28         Mn42   2.170       .  S
N29          C31   1.342       .  A
Mn30        Cl43   2.581       .  S
C31         C836   1.437       .  S
C32         C840   1.444       .  S
N33          N34   1.326       .  A
N33          N39   1.314       .  A
N33         Mn41   2.222       .  S
N34          C44   1.358       .  A
N35          N36   1.323       .  A
N35          N37   1.316       .  A
N35         Mn42   2.217       .  S
N36          C45   1.354       .  A
N37          N38   1.315       .  A
N37         Mn41   2.174       .  S
N38          C45   1.345       .  A
N39          N40   1.319       .  A
N39         Mn42   2.183       .  S
N40          C44   1.346       .  A
Mn41        Cl43   2.578       .  S
Mn42        Cl43   2.509       .  S
C44         C844   1.444       .  S
C45         C833   1.428       .  S
N46          N47   1.325   1_565  A
N46          N52   1.312       .  A
N46         Mn75   2.217       .  S
N47          C54   1.355       .  A
N48          N50   1.314       .  A
N48          N49   1.318       .  A
N48         Mn64   2.195       .  S
N49          C55   1.347       .  A
N50          N51   1.322       .  A
N50         Mn75   2.189       .  S
N51          C55   1.351       .  A
N52          N53   1.314   1_565  A
N52         Mn64   2.151       .  S
N53          C54   1.342       .  A
C54         C841   1.429       .  S
C55         C831   1.433       .  S
N56          N62   1.314       .  A
N56          N57   1.329       .  A
N56         Mn86   2.240       .  S
N57          C65   1.363       .  A
N58          N59   1.321       .  A
N58          N60   1.319       .  A
N58         Mn64   2.216       .  S
N59          C66   1.351       .  A
N60          N61   1.324       .  A
N60         Mn86   2.219       .  S
N61          C66   1.355       .  A
N62          N63   1.307       .  A
N62         Mn64   2.134       .  S
N63          C65   1.334       .  A
Mn64        Cl88   2.498       .  S
C65         C829   1.427       .  S
C66         C828   1.445       .  S
N67          N68   1.325       .  A
N67          N73   1.313       .  A
N67         Mn75   2.214       .  S
N68          C76   1.356       .  A
N69          N71   1.316       .  A
N69          N70   1.327       .  A
N69         Mn87   2.234       .  S
N70          C77   1.358       .  A
N71          N72   1.316       .  A
N71         Mn75   2.167       .  S
N72          C77   1.341       .  A
N73          N74   1.318       .  A
N73         Mn87   2.179       .  S
N74          C76   1.345       .  A
Mn75        Cl88   2.569       .  S
C76         C825   1.438       .  S
C77         C824   1.438       .  S
N78          N79   1.325       .  A
N78          N84   1.317       .  A
N78         Mn86   2.231       .  S
N79          C89   1.357       .  A
N80          N81   1.320       .  A
N80          N82   1.320       .  A
N80         Mn87   2.215       .  S
N81          C90   1.349       .  A
N82          N83   1.326       .  A
N82         Mn86   2.232       .  S
N83          C90   1.357       .  A
N84          N85   1.314       .  A
N84         Mn87   2.160       .  S
N85          C89   1.341       .  A
Mn86        Cl88   2.577       .  S
Mn87        Cl88   2.507       .  S
C89         C822   1.432       .  S
C90         C839   1.445       .  S
N91          N92   1.323       .  A
N91          N97   1.319       .  A
N91        Mn120   2.230       .  S
N92          C99   1.353       .  A
N93          N95   1.313       .  A
N93          N94   1.331       .  A
N93        Mn109   2.252       .  S
N94         C100   1.365       .  A
N95          N96   1.307       .  A
N95        Mn120   2.126       .  S
N96         C100   1.332       .  A
N97          N98   1.326       .  A
N97        Mn109   2.231       .  S
N98          C99   1.357       .  A
C99         C837   1.456       .  S
C100        C820   1.431       .  S
N101        N107   1.323       .  A
N101        N102   1.320   1_545  A
N101       Mn131   2.224       .  S
N102        C110   1.350       .  A
N103        N104   1.327       .  A
N103        N105   1.319       .  A
N103       Mn109   2.237       .  S
N104        C111   1.357       .  A
N105        N106   1.317       .  A
N105       Mn131   2.173       .  S
N106        C111   1.342       .  A
N107        N108   1.324   1_545  A
N107       Mn109   2.228       .  S
N108        C110   1.354       .  A
Mn109      Cl133   2.581       .  S
C110        C813   1.442       .  S
C111        C811   1.440       .  S
N112        N113   1.321       .  A
N112        N118   1.316       .  A
N112       Mn120   2.206       .  S
N113        C121   1.348       .  A
N114        N116   1.311       .  A
N114        N115   1.323       .  A
N114       Mn132   2.204       .  S
N115        C122   1.353       .  A
N116        N117   1.313       .  A
N116       Mn120   2.145       .  S
N117        C122   1.342       .  A
N118        N119   1.325       .  A
N118       Mn132   2.208       .  S
N119        C121   1.354       .  A
Mn120      Cl133   2.504       .  S
C121        C818   1.445       .  S
C122        C816   1.422       .  S
N123        N124   1.330       .  A
N123        N129   1.317       .  A
N123       Mn131   2.251       .  S
N124        C134   1.361       .  A
N125        N126   1.324       .  A
N125        N127   1.313       .  A
N125       Mn132   2.204       .  S
N126        C135   1.354       .  A
N127        N128   1.321       .  A
N127       Mn131   2.203       .  S
N128        C135   1.350       .  A
N129        N130   1.318       .  A
N129       Mn132   2.180       .  S
N130        C134   1.344       .  A
Mn131      Cl133   2.515       .  S
Mn132      Cl133   2.571       .  S
C134        C809   1.449       .  S
C135        C827   1.445       .  S
N136        N137   1.318       .  A
N136        N142   1.321       .  A
N136       Mn165   2.201       .  S
N137        C144   1.345       .  A
N138        N140   1.314       .  A
N138        N139   1.332       .  A
N138       Mn154   2.253       .  S
N139        C145   1.363       .  A
N140        N141   1.309       .  A
N140       Mn165   2.131       .  S
N141        C145   1.334       .  A
N142        N143   1.326       .  A
N142       Mn154   2.242       .  S
N143        C144   1.359       .  A
C144        C843   1.443       .  S
C145        C805   1.436       .  S
N146        N152   1.322       .  A
N146        N147   1.320       .  A
N146       Mn176   2.222       .  S
N147        C155   1.350       .  A
N148        N149   1.330       .  A
N148        N150   1.321       .  A
N148       Mn154   2.255       .  S
N149        C156   1.358       .  A
N150        N151   1.319       .  A
N150       Mn176   2.163       .  S
N151        C156   1.339       .  A
N152        N153   1.324       .  A
N152       Mn154   2.226       .  S
N153        C155   1.355       .  A
Mn154      Cl178   2.584       .  S
C155        C814   1.442       .  S
C156        C801   1.452       .  S
N157        N158   1.319       .  A
N157        N163   1.316       .  A
N157       Mn165   2.192       .  S
N158        C166   1.346       .  A
N159        N161   1.310       .  A
N159        N160   1.324       .  A
N159       Mn177   2.202       .  S
N160        C167   1.353       .  A
N161        N162   1.313       .  A
N161       Mn165   2.147       .  S
N162        C167   1.342       .  A
N163        N164   1.322       .  A
N163       Mn177   2.197       .  S
N164        C166   1.352       .  A
Mn165      Cl178   2.495       .  S
C166        C808   1.435       .  S
C167        C815   1.422       .  S
N168        N169   1.328       .  A
N168        N174   1.318       .  A
N168       Mn176   2.249       .  S
N169        C179   1.360       .  A
N170        N171   1.326       .  A
N170        N172   1.311       .  A
N170       Mn177   2.203       .  S
N171        C180   1.357       .  A
N172        N173   1.316       .  A
N172       Mn176   2.176       .  S
N173        C180   1.344       .  A
N174        N175   1.317       .  A
N174       Mn177   2.173       .  S
N175        C179   1.342       .  A
Mn176      Cl178   2.498       .  S
Mn177      Cl178   2.580       .  S
C179        C803   1.443       .  S
C180        C826   1.437       .  S
N181        N182   1.320       .  A
N181        N187   1.315       .  A
N181       Mn210   2.185       .  S
N182        C189   1.348       .  A
N183        N185   1.311       .  A
N183        N184   1.312       .  A
N183       Mn199   2.140       .  S
N184        C190   1.340       .  A
N185        N186   1.321   1_554  A
N185       Mn210   2.195       .  S
N186        C190   1.353   1_556  A
N187        N188   1.318       .  A
N187       Mn199   2.192       .  S
N188        C189   1.349       .  A
C189        C834   1.429       .  S
C190        C797   1.414       .  S
N191        N197   1.319       .  A
N191        N192   1.322   1_554  A
N191       Mn221   2.201       .  S
N192        C200   1.354   1_556  A
N193        N194   1.310       .  A
N193        N195   1.316       .  A
N193       Mn199   2.143       .  S
N194        C201   1.333       .  A
N195        N196   1.333       .  A
N195       Mn221   2.250       .  S
N196        C201   1.362       .  A
N197        N198   1.320       .  A
N197       Mn199   2.221       .  S
N198        C200   1.350       .  A
Mn199      Cl223   2.490       .  S
C200        C793   1.437       .  S
C201        C810   1.442       .  S
N202        N203   1.318       .  A
N202        N208   1.315       .  A
N202       Mn210   2.191   1_556  S
N203        C211   1.349       .  A
N204        N206   1.311       .  A
N204        N205   1.320       .  A
N204       Mn222   2.191       .  S
N205        C212   1.349       .  A
N206        N207   1.323   1_556  A
N206       Mn210   2.198   1_556  S
N207        C212   1.354   1_554  A
N208        N209   1.321       .  A
N208       Mn222   2.200       .  S
N209        C211   1.352       .  A
Mn210      Cl223   2.574       .  S
C211        C789   1.431       .  S
C212        C800   1.440   1_556  S
N213        N214   1.322   1_556  A
N213        N219   1.321       .  A
N213       Mn221   2.222   1_556  S
N214        C224   1.355   1_554  A
N215        N216   1.317       .  A
N215        N217   1.320       .  A
N215       Mn222   2.171       .  S
N216        C225   1.341       .  A
N217        N218   1.326       .  A
N217       Mn221   2.237   1_556  S
N218        C225   1.355       .  A
N219        N220   1.310       .  A
N219       Mn222   2.167       .  S
N220        C224   1.337       .  A
Mn221      Cl223   2.575       .  S
Mn222      Cl223   2.503   1_556  S
C224        C795   1.413   1_556  S
C225        C791   1.438       .  S
N226        N227   1.324       .  A
N226        N232   1.316       .  A
N226       Mn255   2.208       .  S
N227        C234   1.355       .  A
N228        N230   1.310       .  A
N228        N229   1.310       .  A
N228       Mn244   2.115       .  S
N229        C235   1.337       .  A
N230        N231   1.322       .  A
N230       Mn255   2.209       .  S
N231        C235   1.355       .  A
N232        N233   1.317       .  A
N232       Mn244   2.187       .  S
N233        C234   1.342       .  A
C234        C821   1.433       .  S
C235        C796   1.412       .  S
N236        N242   1.320       .  A
N236        N237   1.325   1_554  A
N236       Mn266   2.226       .  S
N237        C245   1.356   1_556  A
N238        N239   1.305       .  A
N238        N240   1.309       .  A
N238       Mn244   2.105       .  S
N239        C246   1.328       .  A
N240        N241   1.335       .  A
N240       Mn266   2.267       .  S
N241        C246   1.370       .  A
N242        N243   1.323       .  A
N242       Mn244   2.232       .  S
N243        C245   1.353       .  A
Mn244      Cl268   2.493       .  S
C245        C785   1.452   1_554  S
C246        C802   1.438       .  S
N247        N248   1.320       .  A
N247        N253   1.318       .  A
N247       Mn255   2.197   1_556  S
N248        C256   1.348       .  A
N249        N251   1.311       .  A
N249        N250   1.320       .  A
N249       Mn267   2.183       .  S
N250        C257   1.346       .  A
N251        N252   1.328   1_556  A
N251       Mn255   2.220   1_556  S
N252        C257   1.360   1_554  A
N253        N254   1.325       .  A
N253       Mn267   2.234       .  S
N254        C256   1.358       .  A
Mn255      Cl268   2.580       .  S
C256        C781   1.445       .  S
C257        C787   1.450       .  S
N258        N259   1.320   1_556  A
N258        N264   1.323       .  A
N258       Mn266   2.212   1_556  S
N259        C269   1.353   1_554  A
N260        N261   1.319       .  A
N260        N262   1.324       .  A
N260       Mn267   2.171       .  S
N261        C270   1.340       .  A
N262        N263   1.327       .  A
N262       Mn266   2.239   1_556  S
N263        C270   1.353       .  A
N264        N265   1.312       .  A
N264       Mn267   2.189       .  S
N265        C269   1.341       .  A
Mn266      Cl268   2.580       .  S
Mn267      Cl268   2.495   1_556  S
C269        C798   1.415   1_556  S
C270        C783   1.445       .  S
N271        N272   1.325       .  A
N271        N277   1.316       .  A
N271       Mn300   2.219       .  S
N272        C279   1.355       .  A
N273        N275   1.310       .  A
N273        N274   1.314   1_455  A
N273       Mn289   2.147   1_455  S
N274        C280   1.342   1_654  A
N275        N276   1.325   1_554  A
N275       Mn300   2.214       .  S
N276        C280   1.356       .  A
N277        N278   1.319       .  A
N277       Mn289   2.185   1_455  S
N278        C279   1.345       .  A
C279        C812   1.441   1_565  S
C280        C778   1.430       .  S
N281        N287   1.320       .  A
N281        N282   1.328   1_554  A
N281       Mn311   2.248   1_565  S
N282        C290   1.361   1_556  A
N283        N284   1.308       .  A
N283        N285   1.313   1_565  A
N283       Mn289   2.137       .  S
N284        C291   1.335   1_565  A
N285        N286   1.329       .  A
N285       Mn311   2.228       .  S
N286        C291   1.359       .  A
N287        N288   1.318       .  A
N287       Mn289   2.202       .  S
N288        C290   1.346       .  A
Mn289      Cl313   2.500   1_655  S
C290        C788   1.450   1_554  S
C291        C823   1.429       .  S
N292        N293   1.319       .  A
N292        N298   1.319       .  A
N292       Mn300   2.198   1_556  S
N293        C301   1.348       .  A
N294        N296   1.312   1_556  A
N294        N295   1.318       .  A
N294       Mn312   2.183       .  S
N295        C302   1.347   1_556  A
N296        N297   1.323       .  A
N296       Mn300   2.200   1_545  S
N297        C302   1.354       .  A
N298        N299   1.327       .  A
N298       Mn312   2.242   1_565  S
N299        C301   1.359       .  A
Mn300      Cl313   2.570       .  S
C301        C775   1.447       .  S
C302        C794   1.437       .  S
N303        N304   1.324       .  A
N303        N309   1.322   1_654  A
N303       Mn311   2.228       .  S
N304        C314   1.355       .  A
N305        N306   1.319       .  A
N305        N307   1.322       .  A
N305       Mn312   2.174   1_655  S
N306        C315   1.341       .  A
N307        N308   1.326       .  A
N307       Mn311   2.228   1_556  S
N308        C315   1.353       .  A
N309        N310   1.317       .  A
N309       Mn312   2.208       .  S
N310        C314   1.347   1_456  A
Mn311      Cl313   2.580   1_645  S
Mn312      Cl313   2.512   1_546  S
C314        C780   1.435   1_655  S
C315        C773   1.440       .  S
N316        N317   1.324       .  A
N316        N322   1.316       .  A
N316       Mn345   2.207       .  S
N317        C324   1.354       .  A
N318        N320   1.311   1_454  A
N318        N319   1.313       .  A
N318       Mn334   2.145       .  S
N319        C325   1.341   1_454  A
N320        N321   1.326       .  A
N320       Mn345   2.218   1_556  S
N321        C325   1.357       .  A
N322        N323   1.319       .  A
N322       Mn334   2.191   1_655  S
N323        C324   1.345       .  A
C324        C835   1.439       .  S
C325        C777   1.429       .  S
N326        N332   1.321   1_556  A
N326        N327   1.326       .  A
N326       Mn356   2.235   1_556  S
N327        C335   1.358       .  A
N328        N329   1.307       .  A
N328        N330   1.313       .  A
N328       Mn334   2.130       .  S
N329        C336   1.333       .  A
N330        N331   1.331       .  A
N330       Mn356   2.240       .  S
N331        C336   1.362       .  A
N332        N333   1.321       .  A
N332       Mn334   2.221       .  S
N333        C335   1.350   1_554  A
Mn334      Cl358   2.495       .  S
C335        C786   1.452       .  S
C336        C804   1.433       .  S
N337        N338   1.317       .  A
N337        N343   1.318       .  A
N337       Mn345   2.185   1_556  S
N338        C346   1.345       .  A
N339        N341   1.312   1_556  A
N339        N340   1.317       .  A
N339       Mn357   2.176       .  S
N340        C347   1.345   1_556  A
N341        N342   1.326       .  A
N341       Mn345   2.210       .  S
N342        C347   1.357       .  A
N343        N344   1.327       .  A
N343       Mn357   2.247       .  S
N344        C346   1.360       .  A
Mn345      Cl358   2.574   1_655  S
C346        C769   1.443       .  S
C347        C799   1.439       .  S
N348        N349   1.324       .  A
N348        N354   1.322   1_454  A
N348       Mn356   2.224       .  S
N349        C359   1.355       .  A
N350        N351   1.318       .  A
N350        N352   1.322       .  A
N350       Mn357   2.169   1_455  S
N351        C360   1.339       .  A
N352        N353   1.326       .  A
N352       Mn356   2.232   1_556  S
N353        C360   1.353       .  A
N354        N355   1.317       .  A
N354       Mn357   2.209       .  S
N355        C359   1.347   1_656  A
Mn356      Cl358   2.583       .  S
Mn357      Cl358   2.506   1_656  S
C359        C779   1.435       .  S
C360        C771   1.439       .  S
N361        N362   1.330       .  A
N361        N367   1.314       .  A
N361       Mn390   2.246       .  S
N362        C369   1.364       .  A
N363        N365   1.319       .  A
N363        N364   1.320       .  A
N363       Mn379   2.212       .  S
N364        C370   1.349       .  A
N365        N366   1.324       .  A
N365       Mn390   2.219       .  S
N366        C370   1.355       .  A
N367        N368   1.307       .  A
N367       Mn379   2.133       .  S
N368        C369   1.334       .  A
C369        C774   1.429       .  S
C370        C762   1.444   1_545  S
N371        N377   1.312       .  A
N371        N372   1.324       .  A
N371       Mn401   2.208   1_565  S
N372        C380   1.354       .  A
N373        N374   1.319       .  A
N373        N375   1.314       .  A
N373       Mn379   2.196       .  S
N374        C381   1.348       .  A
N375        N376   1.321       .  A
N375       Mn401   2.186       .  S
N376        C381   1.350       .  A
N377        N378   1.314       .  A
N377       Mn379   2.151   1_565  S
N378        C380   1.343       .  A
Mn379      Cl403   2.499       .  S
C380        C763   1.425       .  S
C381        C790   1.431       .  S
N382        N383   1.326       .  A
N382        N388   1.318       .  A
N382       Mn390   2.237       .  S
N383        C391   1.358       .  A
N384        N386   1.320       .  A
N384        N385   1.319       .  A
N384       Mn402   2.216       .  S
N385        C392   1.349       .  A
N386        N387   1.323       .  A
N386       Mn390   2.217       .  S
N387        C392   1.354       .  A
N388        N389   1.314       .  A
N388       Mn402   2.158       .  S
N389        C391   1.340       .  A
Mn390      Cl403   2.579       .  S
C391        C759   1.433       .  S
C392        C765   1.437       .  S
N393        N394   1.325       .  A
N393        N399   1.313       .  A
N393       Mn401   2.210       .  S
N394        C404   1.356       .  A
N395        N396   1.328       .  A
N395        N397   1.316       .  A
N395       Mn402   2.238       .  S
N396        C405   1.360       .  A
N397        N398   1.317       .  A
N397       Mn401   2.172       .  S
N398        C405   1.343       .  A
N399        N400   1.318       .  A
N399       Mn402   2.178       .  S
N400        C404   1.345       .  A
Mn401      Cl403   2.568       .  S
Mn402      Cl403   2.507       .  S
C404        C767   1.436       .  S
C405        C758   1.443   1_545  S
N406        N407   1.331       .  A
N406        N412   1.314       .  A
N406       Mn435   2.248       .  S
N407        C414   1.362       .  A
N408        N410   1.322       .  A
N408        N409   1.325       .  A
N408       Mn424   2.244       .  S
N409        C415   1.354       .  A
N410        N411   1.328       .  A
N410       Mn435   2.246       .  S
N411        C415   1.359       .  A
N412        N413   1.309       .  A
N412       Mn424   2.134       .  S
N413        C414   1.335       .  A
C414        C782   1.436       .  S
C415        C756   1.464       .  S
N416        N422   1.312       .  A
N416        N417   1.324       .  A
N416       Mn446   2.209       .  S
N417        C425   1.354       .  A
N418        N419   1.323       .  A
N418        N420   1.317       .  A
N418       Mn424   2.223       .  S
N419        C426   1.352       .  A
N420        N421   1.322       .  A
N420       Mn446   2.189       .  S
N421        C426   1.349       .  A
N422        N423   1.314       .  A
N422       Mn424   2.153       .  S
N423        C425   1.342       .  A
Mn424      Cl448   2.503       .  S
C425        C764   1.425       .  S
C426        C770   1.444       .  S
N427        N428   1.329       .  A
N427        N433   1.323       .  A
N427       Mn435   2.251       .  S
N428        C436   1.357       .  A
N429        N431   1.322       .  A
N429        N430   1.318       .  A
N429       Mn447   2.212       .  S
N430        C437   1.348       .  A
N431        N432   1.323       .  A
N431       Mn435   2.222       .  S
N432        C437   1.354       .  A
N433        N434   1.317       .  A
N433       Mn447   2.162       .  S
N434        C436   1.338       .  A
Mn435      Cl448   2.580       .  S
C436        C749   1.445       .  S
C437        C766   1.436       .  S
N438        N439   1.326       .  A
N438        N444   1.311       .  A
N438       Mn446   2.215       .  S
N439        C449   1.358       .  A
N440        N441   1.325       .  A
N440        N442   1.316       .  A
N440       Mn447   2.236       .  S
N441        C450   1.358       .  A
N442        N443   1.316       .  A
N442       Mn446   2.175       .  S
N443        C450   1.345       .  A
N444        N445   1.318       .  A
N444       Mn447   2.173       .  S
N445        C449   1.345       .  A
Mn446      Cl448   2.585       .  S
Mn447      Cl448   2.504       .  S
C449        C753   1.442       .  S
C450        C751   1.437       .  S
N451        N452   1.331       .  A
N451        N457   1.312       .  A
N451       Mn480   2.246       .  S
N452        C459   1.364       .  A
N453        N455   1.320       .  A
N453        N454   1.317       .  A
N453       Mn469   2.191       .  S
N454        C460   1.344       .  A
N455        N456   1.327       .  A
N455       Mn480   2.246       .  S
N456        C460   1.359       .  A
N457        N458   1.306       .  A
N457       Mn469   2.121       .  S
N458        C459   1.332       .  A
C459        C772   1.427       .  S
C460        C754   1.442       .  S
N461        N467   1.311       .  A
N461        N462   1.326       .  A
N461       Mn491   2.219       .  S
N462        C470   1.357       .  A
N463        N464   1.319       .  A
N463        N465   1.315       .  A
N463       Mn469   2.182       .  S
N464        C471   1.343       .  A
N465        N466   1.325       .  A
N465       Mn491   2.209       .  S
N466        C471   1.354       .  A
N467        N468   1.313       .  A
N467       Mn469   2.141       .  S
N468        C470   1.341       .  A
Mn469      Cl493   2.500       .  S
C470        C745   1.426       .  S
C471        C792   1.439       .  S
N472        N473   1.328       .  A
N472        N478   1.323       .  A
N472       Mn480   2.246       .  S
N473        C481   1.356       .  A
N474        N476   1.320       .  A
N474        N475   1.318       .  A
N474       Mn492   2.209       .  S
N475        C482   1.348       .  A
N476        N477   1.324       .  A
N476       Mn480   2.219       .  S
N477        C482   1.355       .  A
N478        N479   1.318       .  A
N478       Mn492   2.169       .  S
N479        C481   1.339       .  A
Mn480      Cl493   2.582       .  S
C481        C743   1.445       .  S
C482        C747   1.438       .  S
N483        N484   1.325       .  A
N483        N489   1.312       .  A
N483       Mn491   2.207       .  S
N484        C494   1.357       .  A
N485        N486   1.325       .  A
N485        N487   1.317       .  A
N485       Mn492   2.234       .  S
N486        C495   1.357       .  A
N487        N488   1.317       .  A
N487       Mn491   2.184       .  S
N488        C495   1.346       .  A
N489        N490   1.316       .  A
N489       Mn492   2.172       .  S
N490        C494   1.344       .  A
Mn491      Cl493   2.571       .  S
Mn492      Cl493   2.502       .  S
C494        C768   1.435       .  S
C495        C742   1.438       .  S
N496        N497   1.332       .  A
N496        N502   1.312       .  A
N496       Mn525   2.257       .  S
N497        C504   1.367       .  A
N498        N500   1.320       .  A
N498        N499   1.326       .  A
N498       Mn514   2.249       .  S
N499        C505   1.356       .  A
N500        N501   1.326       .  A
N500       Mn525   2.229       .  S
N501        C505   1.357       .  A
N502        N503   1.306       .  A
N502       Mn514   2.121       .  S
N503        C504   1.331       .  A
C504        C784   1.433       .  S
C505        C755   1.464       .  S
N506        N512   1.311       .  A
N506        N507   1.325       .  A
N506       Mn536   2.211       .  S
N507        C515   1.354       .  A
N508        N509   1.322       .  A
N508        N510   1.316       .  A
N508       Mn514   2.216       .  S
N509        C516   1.350       .  A
N510        N511   1.325       .  A
N510       Mn536   2.201       .  S
N511        C516   1.352       .  A
N512        N513   1.313       .  A
N512       Mn514   2.144       .  S
N513        C515   1.341       .  A
Mn514      Cl538   2.499       .  S
C515        C746   1.426       .  S
C516        C776   1.447       .  S
N517        N518   1.327       .  A
N517        N523   1.318       .  A
N517       Mn525   2.242       .  S
N518        C526   1.358       .  A
N519        N521   1.322       .  A
N519        N520   1.320   1_565  A
N519       Mn537   2.219       .  S
N520        C527   1.349       .  A
N521        N522   1.323   1_565  A
N521       Mn525   2.226       .  S
N522        C527   1.354       .  A
N523        N524   1.315       .  A
N523       Mn537   2.165       .  S
N524        C526   1.340       .  A
Mn525      Cl538   2.584       .  S
C526        C738   1.438       .  S
C527        C748   1.439       .  S
N528        N529   1.324       .  A
N528        N534   1.312       .  A
N528       Mn536   2.209       .  S
N529        C539   1.355       .  A
N530        N531   1.328       .  A
N530        N532   1.317       .  A
N530       Mn537   2.243       .  S
N531        C540   1.360       .  A
N532        N533   1.318       .  A
N532       Mn536   2.179       .  S
N533        C540   1.344       .  A
N534        N535   1.321       .  A
N534       Mn537   2.194       .  S
N535        C539   1.349       .  A
Mn536      Cl538   2.572       .  S
Mn537      Cl538   2.511       .  S
C539        C761   1.444       .  S
C540        C739   1.445       .  S
N541        N542   1.322       .  A
N541        N547   1.318       .  A
N541       Mn570   2.220       .  S
N542        C549   1.353       .  A
N543        N545   1.311       .  A
N543        N544   1.322       .  A
N543       Mn559   2.196       .  S
N544        C550   1.350       .  A
N545        N546   1.324       .  A
N545       Mn570   2.201   1_565  S
N546        C550   1.355       .  A
N547        N548   1.323       .  A
N547       Mn559   2.218   1_545  S
N548        C549   1.354       .  A
C549        C817   1.446       .  S
C550        C730   1.447       .  S
N551        N557   1.321       .  A
N551        N552   1.321       .  A
N551       Mn581   2.215       .  S
N552        C560   1.354       .  A
N553        N554   1.319       .  A
N553        N555   1.323       .  A
N553       Mn559   2.177       .  S
N554        C561   1.341       .  A
N555        N556   1.325       .  A
N555       Mn581   2.219       .  S
N556        C561   1.350       .  A
N557        N558   1.310       .  A
N557       Mn559   2.168       .  S
N558        C560   1.338       .  A
Mn559      Cl583   2.511       .  S
C560        C731   1.409       .  S
C561        C830   1.438       .  S
N562        N563   1.326       .  A
N562        N568   1.317       .  A
N562       Mn570   2.226       .  S
N563        C571   1.357       .  A
N564        N566   1.311       .  A
N564        N565   1.313       .  A
N564       Mn582   2.141       .  S
N565        C572   1.341       .  A
N566        N567   1.321       .  A
N566       Mn570   2.201       .  S
N567        C572   1.353       .  A
N568        N569   1.318       .  A
N568       Mn582   2.181       .  S
N569        C571   1.343       .  A
Mn570      Cl583   2.567   1_545  S
C571        C737   1.440   1_545  S
C572        C733   1.419       .  S
N573        N574   1.325       .  A
N573        N579   1.320       .  A
N573       Mn581   2.227   1_545  S
N574        C584   1.357       .  A
N575        N576   1.309       .  A
N575        N577   1.312       .  A
N575       Mn582   2.135   1_565  S
N576        C585   1.334       .  A
N577        N578   1.331       .  A
N577       Mn581   2.234       .  S
N578        C585   1.361       .  A
N579        N580   1.320       .  A
N579       Mn582   2.217       .  S
N580        C584   1.349       .  A
Mn581      Cl583   2.576       .  S
Mn582      Cl583   2.499   1_545  S
C584        C735   1.446       .  S
C585        C757   1.434       .  S
N586        N587   1.320       .  A
N586        N592   1.317       .  A
N586       Mn615   2.192       .  S
N587        C594   1.348       .  A
N588        N590   1.312       .  A
N588        N589   1.323       .  A
N588       Mn604   2.205       .  S
N589        C595   1.351       .  A
N590        N591   1.325       .  A
N590       Mn615   2.210       .  S
N591        C595   1.356       .  A
N592        N593   1.325       .  A
N592       Mn604   2.233       .  S
N593        C594   1.358       .  A
C594        C806   1.445       .  S
C595        C725   1.452       .  S
N596        N602   1.322       .  A
N596        N597   1.321       .  A
N596       Mn626   2.216       .  S
N597        C605   1.353       .  A
N598        N599   1.318       .  A
N598        N600   1.320       .  A
N598       Mn604   2.182       .  S
N599        C606   1.344       .  A
N600        N601   1.325       .  A
N600       Mn626   2.229       .  S
N601        C606   1.354       .  A
N602        N603   1.315       .  A
N602       Mn604   2.194       .  S
N603        C605   1.343       .  A
Mn604      Cl628   2.509       .  S
C605        C734   1.420       .  S
C606        C845   1.437       .  S
N607        N608   1.323       .  A
N607        N613   1.316       .  A
N607       Mn615   2.196       .  S
N608        C616   1.352       .  A
N609        N611   1.310       .  A
N609        N610   1.310       .  A
N609       Mn627   2.122       .  S
N610        C617   1.337       .  A
N611        N612   1.321       .  A
N611       Mn615   2.200       .  S
N612        C617   1.353       .  A
N613        N614   1.320       .  A
N613       Mn627   2.205       .  S
N614        C616   1.348       .  A
Mn615      Cl628   2.575       .  S
C616        C741   1.439       .  S
C617        C732   1.409       .  S
N618        N619   1.324       .  A
N618        N624   1.319       .  A
N618       Mn626   2.214       .  S
N619        C629   1.354       .  A
N620        N621   1.305       .  A
N620        N622   1.310       .  A
N620       Mn627   2.113       .  S
N621        C630   1.330       .  A
N622        N623   1.333       .  A
N622       Mn626   2.256       .  S
N623        C630   1.368       .  A
N624        N625   1.325       .  A
N624       Mn627   2.244       .  S
N625        C629   1.356       .  A
Mn626      Cl628   2.576       .  S
Mn627      Cl628   2.499       .  S
C629        C728   1.455       .  S
C630        C750   1.433       .  S
N631        N632   1.320       .  A
N631        N637   1.319       .  A
N631       Mn660   2.201       .  S
N632        C639   1.348       .  A
N633        N635   1.311       .  A
N633        N634   1.321       .  A
N633       Mn649   2.190       .  S
N634        C640   1.348       .  A
N635        N636   1.325       .  A
N635       Mn660   2.205       .  S
N636        C640   1.356       .  A
N637        N638   1.326       .  A
N637       Mn649   2.239       .  S
N638        C639   1.359       .  A
C639        C847   1.448       .  S
C640        C736   1.446       .  S
N641        N647   1.322   1_455  A
N641        N642   1.321       .  A
N641       Mn671   2.216       .  S
N642        C650   1.354   1_455  A
N643        N644   1.320       .  A
N643        N645   1.323       .  A
N643       Mn649   2.177   1_455  S
N644        C651   1.341       .  A
N645        N646   1.326       .  A
N645       Mn671   2.226       .  S
N646        C651   1.351       .  A
N647        N648   1.313       .  A
N647       Mn649   2.186       .  S
N648        C650   1.341       .  A
Mn649      Cl673   2.505       .  S
C650        C723   1.417       .  S
C651        C819   1.442       .  S
N652        N653   1.325       .  A
N652        N658   1.316       .  A
N652       Mn660   2.215       .  S
N653        C661   1.357       .  A
N654        N656   1.310       .  A
N654        N655   1.310   1_655  A
N654       Mn672   2.119   1_655  S
N655        C662   1.338   1_455  A
N656        N657   1.320       .  A
N656       Mn660   2.194       .  S
N657        C662   1.352       .  A
N658        N659   1.316       .  A
N658       Mn672   2.180   1_655  S
N659        C661   1.341       .  A
Mn660      Cl673   2.568       .  S
C661        C760   1.434       .  S
C662        C722   1.407       .  S
N663        N664   1.326       .  A
N663        N669   1.320       .  A
N663       Mn671   2.233       .  S
N664        C674   1.357       .  A
N665        N666   1.305       .  A
N665        N667   1.309       .  A
N665       Mn672   2.109       .  S
N666        C675   1.330       .  A
N667        N668   1.333       .  A
N667       Mn671   2.254       .  S
N668        C675   1.367       .  A
N669        N670   1.322       .  A
N669       Mn672   2.222       .  S
N670        C674   1.351       .  A
Mn671      Cl673   2.579   1_455  S
Mn672      Cl673   2.496   1_455  S
C674        C726   1.452       .  S
C675        C744   1.432       .  S
N676        N677   1.319       .  A
N676        N682   1.317       .  A
N676       Mn705   2.199       .  S
N677        C684   1.350       .  A
N678        N680   1.312       .  A
N678        N679   1.325       .  A
N678       Mn694   2.214       .  S
N679        C685   1.354       .  A
N680        N681   1.324       .  A
N680       Mn705   2.205       .  S
N681        C685   1.354       .  A
N682        N683   1.321       .  A
N682       Mn694   2.205       .  S
N683        C684   1.352       .  A
C684        C832   1.433       .  S
C685        C727   1.454       .  S
N686        N692   1.321   1_455  A
N686        N687   1.320       .  A
N686       Mn716   2.211       .  S
N687        C695   1.352       .  A
N688        N689   1.318       .  A
N688        N690   1.319       .  A
N688       Mn694   2.181   1_455  S
N689        C696   1.343       .  A
N690        N691   1.324       .  A
N690       Mn716   2.219       .  S
N691        C696   1.352       .  A
N692        N693   1.310       .  A
N692       Mn694   2.167       .  S
N693        C695   1.339   1_655  A
Mn694      Cl718   2.516       .  S
C695        C721   1.407   1_455  S
C696        C807   1.435       .  S
N697        N698   1.322       .  A
N697        N703   1.317       .  A
N697       Mn705   2.196       .  S
N698        C706   1.350       .  A
N699        N701   1.311       .  A
N699        N700   1.312   1_655  A
N699       Mn717   2.140   1_655  S
N700        C707   1.340   1_455  A
N701        N702   1.321       .  A
N701       Mn705   2.199       .  S
N702        C707   1.353       .  A
N703        N704   1.321       .  A
N703       Mn717   2.205   1_655  S
N704        C706   1.350       .  A
Mn705      Cl718   2.567       .  S
C706        C752   1.437       .  S
C707        C724   1.417       .  S
N708        N709   1.324       .  A
N708        N714   1.319       .  A
N708       Mn716   2.210       .  S
N709        C719   1.355       .  A
N710        N711   1.309       .  A
N710        N712   1.314       .  A
N710       Mn717   2.140       .  S
N711        C720   1.334       .  A
N712        N713   1.331       .  A
N712       Mn716   2.238       .  S
N713        C720   1.361       .  A
N714        N715   1.322       .  A
N714       Mn717   2.234       .  S
N715        C719   1.353       .  A
Mn716      Cl718   2.576   1_455  S
Mn717      Cl718   2.496   1_455  S
C719        C729   1.447       .  S
C720        C740   1.436       .  S
C721        C722   1.189       .  T
C723        C724   1.195   1_545  T
C725        C726   1.215       .  T
C727        C728   1.217       .  T
C729        C730   1.213       .  T
C731        C732   1.191       .  T
C733        C734   1.197       .  T
C735        C736   1.212       .  T
C737        C738   1.208       .  T
C739        C740   1.210       .  T
C741        C742   1.207       .  T
C743        C744   1.210       .  T
C745        C746   1.200       .  T
C747        C748   1.207       .  T
C749        C750   1.211       .  T
C751        C752   1.207       .  T
C753        C754   1.210   1_655  T
C755        C756   1.223       .  T
C757        C758   1.209       .  T
C759        C760   1.205       .  T
C761        C762   1.211   1_455  T
C763        C764   1.200       .  T
C765        C766   1.206       .  T
C767        C768   1.206       .  T
C769        C770   1.211       .  T
C771        C772   1.206       .  T
C773        C774   1.207       .  T
C775        C776   1.213       .  T
C777        C778   1.203   1_655  T
C779        C780   1.205       .  T
C781        C782   1.210       .  T
C783        C784   1.210       .  T
C785        C786   1.215       .  T
C787        C788   1.215       .  T
C789        C790   1.203       .  T
C791        C792   1.208       .  T
C793        C794   1.207       .  T
C795        C796   1.193       .  T
C797        C798   1.194   1_545  T
C799        C800   1.208       .  T
C801        C802   1.215       .  T
C803        C804   1.209       .  T
C805        C806   1.210       .  T
C807        C808   1.205       .  T
C809        C810   1.214       .  T
C811        C812   1.209       .  T
C813        C814   1.209       .  T
C815        C816   1.198       .  T
C817        C818   1.211       .  T
C819        C820   1.208       .  T
C821        C822   1.204       .  T
C823        C824   1.206   1_545  T
C825        C826   1.207   1_655  T
C827        C828   1.211   1_545  T
C829        C830   1.206       .  T
C831        C832   1.204       .  T
C833        C834   1.202       .  T
C835        C836   1.207       .  T
C837        C838   1.218   1_455  T
C839        C840   1.211       .  T
C841        C842   1.202       .  T
C843        C844   1.211       .  T
C845        C846   1.207       .  T
C847        C848   1.212       .  T
