geometry optimzed in LAMMPS
_audit_creation_date              2020-11-30 
_audit_creation_method            'lammps2cif' 
_symmetry_space_group_name_H-M    'P1' 
_symmetry_Int_Tables_number       1 
_symmetry_cell_setting            triclinic 
loop_ 
_symmetry_equiv_pos_as_xyz 
  x,y,z 
_cell_length_a                    40.57560033461703 
_cell_length_b                    47.786999972001794 
_cell_length_c                    36.33308469254669 
_cell_angle_alpha                 79.9823860127329 
_cell_angle_beta                  87.65844556600865 
_cell_angle_gamma                 90.61537771969851 
loop_ 
_atom_site_label 
_atom_site_type_symbol 
_atom_site_fract_x 
_atom_site_fract_y 
_atom_site_fract_z 
_atom_site_charge 
O1          O  0.25124345  0.50015642  0.40529865    -0.82090
O2          O  0.21065251  0.99314920  0.06389338    -0.66780
O3          O  0.24261218  0.01509088  0.46713795    -1.13380
C4          C  0.31611568  0.43699688  0.50515697     1.04800
O5          O  0.26050615  0.99064700  0.08451412    -0.79980
O6          O  0.31674350  0.98655095  0.04613080    -0.67570
Ni7        Ni  0.21490700  0.01664974  0.42682942     1.34870
C8          C  0.32229011  0.00825080  0.02059745     0.83540
O9          O  0.19352905  0.03399505  0.00949452    -0.80520
O10         O  0.17840338  0.03440197  0.45056704    -0.90800
C11         C  0.23375595  0.00400599  0.07902569     0.83110
O12         O  0.19602663  0.47972336  0.44137738    -0.69000
O13         O  0.29830313  0.43307846  0.03557273    -0.88290
C14         C  0.18126171  0.46959036  0.47227675     0.83940
C15         C  0.17448145  0.04192644  0.98276234     1.05510
H16         H  0.24242186  0.45570513  0.01198023     0.37310
O17         O  0.25408925  0.47253391  0.01611744    -1.10950
O18         O  0.30443993  0.01365254  0.49252828    -0.67600
Ni19       Ni  0.27813870  0.48755206  0.47108983     1.26350
O20         O  0.18807833  0.47814686  0.00261497    -0.67830
O21         O  0.31243715  0.45832479  0.47836469    -0.80120
C22         C  0.27760674  0.51504786  0.40206234     0.83320
O23         O  0.29951115  0.50624931  0.42467430    -0.67300
Ni24       Ni  0.27843440  0.46163718  0.05967681     1.27450
Ni25       Ni  0.22339173  0.00312852  0.01413210     1.26060
H26         H  0.25195481  0.03380321  0.46678257     0.37870
O27         O  0.25306335  0.50008652  0.15475449    -0.82090
O28         O  0.21326102  0.99616915  0.31254790    -0.66780
O29         O  0.24444919  0.01671533  0.21525571    -1.13380
C30         C  0.31808614  0.43888049  0.25408538     1.04800
O31         O  0.26337721  0.99351400  0.33234172    -0.79980
O32         O  0.31899238  0.98772344  0.29426084    -0.67570
Ni33       Ni  0.21660545  0.01656912  0.17561036     1.34870
C34         C  0.32450513  0.00950557  0.26900231     0.83540
O35         O  0.19584971  0.03609027  0.25710904    -0.80520
O36         O  0.17997403  0.03435512  0.19898146    -0.90800
C37         C  0.23666818  0.00705485  0.32722027     0.83110
O38         O  0.19916636  0.47918453  0.19216226    -0.69000
O39         O  0.29992034  0.43486143  0.28426399    -0.88290
C40         C  0.18370858  0.47018436  0.22289885     0.83940
C41         C  0.17642403  0.04298097  0.23045317     1.05510
H42         H  0.24449333  0.45770379  0.26082195     0.37310
O43         O  0.25625045  0.47453021  0.26480589    -1.10950
O44         O  0.30648564  0.01540287  0.24120853    -0.67600
Ni45       Ni  0.28016681  0.48933231  0.21957757     1.26350
O46         O  0.18995579  0.48001215  0.25239652    -0.67830
O47         O  0.31453173  0.46016604  0.22714960    -0.80120
C48         C  0.27852295  0.51608222  0.15048722     0.83320
O49         O  0.30110860  0.50829445  0.17273648    -0.67300
Ni50       Ni  0.28051607  0.46375908  0.30830699     1.27450
Ni51       Ni  0.22554902  0.00518127  0.26245529     1.26060
H52         H  0.25339511  0.03569676  0.21383855     0.37870
O53         O  0.39876383  0.04894651  0.10331048    -0.82090
O54         O  0.39726917  0.06105120  0.42507639    -0.66780
O55         O  0.42283746  0.05591704  0.02671447    -1.13380
C56         C  0.42219615  0.15151998  0.51521521     1.04800
O57         O  0.41118093  0.10617821  0.40271247    -0.79980
O58         O  0.45680303  0.10697315  0.45235361    -0.67570
Ni59       Ni  0.41098705  0.02548192  0.06568971     1.34870
C60         C  0.47238870  0.10436071  0.48213441     0.83540
O61         O  0.42257038  0.02060784  0.47221855    -0.80520
O62         O  0.42160972  0.99906878  0.03263358    -0.90800
C63         C  0.40515615  0.08086996  0.39775134     0.83110
O64         O  0.36630708  0.02184972  0.05341775    -0.69000
O65         O  0.42776531  0.15047311  0.48064267    -0.88290
C66         C  0.35236573  0.02582307  0.52213463     0.83940
C67         C  0.42079613  0.99865700  0.49736101     1.05510
H68         H  0.37264487  0.09778863  0.48287450     0.37310
O69         O  0.39635284  0.09602445  0.48213981    -1.10950
O70         O  0.45836399  0.10318049  0.01467314    -0.67600
Ni71       Ni  0.41290811  0.09365670  0.03215434     1.26350
O72         O  0.36484118  0.04138001  0.49214354    -0.67830
O73         O  0.40544677  0.13228402  0.03641921    -0.80120
C74         C  0.41087961  0.07250593  0.10923279     0.83320
O75         O  0.42634606  0.08925190  0.08294913    -0.67300
Ni76       Ni  0.41661927  0.12571908  0.44504121     1.27450
Ni77       Ni  0.40887872  0.05785352  0.47671790     1.26060
H78         H  0.44650972  0.05426096  0.02473246     0.37870
O79         O  0.39690418  0.05080037  0.35199944    -0.82090
O80         O  0.39956866  0.06083269  0.17547465    -0.66780
O81         O  0.42439119  0.05736091  0.27681994    -1.13380
C82         C  0.42129512  0.15321433  0.26310237     1.04800
O83         O  0.41425511  0.10552218  0.15197894    -0.79980
O84         O  0.45920646  0.10881960  0.20231673    -0.67570
Ni85       Ni  0.41236230  0.02717500  0.31598935     1.34870
C86         C  0.47417842  0.10636509  0.23255457     0.83540
O87         O  0.42491643  0.02142106  0.22340703    -0.80520
O88         O  0.42609179  0.00073730  0.28408566    -0.90800
C89         C  0.40770165  0.08010204  0.14775296     0.83110
O90         O  0.36852836  0.02198473  0.30218082    -0.69000
O91         O  0.42742034  0.15185171  0.22869233    -0.88290
C92         C  0.35463903  0.02662883  0.27108719     0.83940
C93         C  0.42481596  0.99987314  0.24907855     1.05510
H94         H  0.37444303  0.09848365  0.23127428     0.37310
O95         O  0.39816682  0.09687705  0.23105510    -1.10950
O96         O  0.45945860  0.10493826  0.26479856    -0.67600
Ni97       Ni  0.41365437  0.09501922  0.28137519     1.26350
O98         O  0.36696669  0.04273588  0.24161496    -0.67830
O99         O  0.40532429  0.13363019  0.28461850    -0.80120
C100        C  0.40900350  0.07405832  0.35878463     0.83320
O101        O  0.42530967  0.09088186  0.33308536    -0.67300
Ni102      Ni  0.41830319  0.12622145  0.19359342     1.27450
Ni103      Ni  0.41105247  0.05869422  0.22678198     1.26060
H104        H  0.44811080  0.05596962  0.27530742     0.37870
O105        O  0.06463711  0.11691152  0.38475829    -0.82090
O106        O  0.06334642  0.11029392  0.06451984    -0.66780
O107        O  0.08289730  0.11544003  0.45801553    -1.13380
C108        C  0.07797277  0.01388466  0.49261939     1.04800
O109        O  0.10193861  0.07809114  0.07898445    -0.79980
O110        O  0.13384072  0.05113486  0.02616926    -0.67570
Ni111      Ni  0.05313141  0.13651322  0.42382859     1.34870
C112        C  0.14381880  0.05602483  0.99190273     0.83540
O113        O  0.06763639  0.15472014  0.00484955    -0.80520
O114        O  0.03641152  0.16101350  0.45537427    -0.90800
C115        C  0.08148843  0.09573785  0.08884392     0.83110
O116        O  0.02014516  0.10907309  0.44396335    -0.69000
O117        O  0.08089357  0.01716714  0.02656622    -0.88290
C118        C  0.00774590  0.10715543  0.47715193     0.83940
C119        C  0.04507599  0.16794526  0.98530241     1.05510
H120        H  0.04796399  0.06724894  0.01607440     0.37310
O121        O  0.07058974  0.07391873  0.01222518    -1.10950
O122        O  0.12723092  0.06926847  0.46550397    -0.67600
Ni123      Ni  0.08039692  0.07453770  0.46030826     1.26350
O124        O  0.02415188  0.11180527  0.00476458    -0.67830
O125        O  0.07643743  0.03426612  0.46492445    -0.80120
C126        C  0.07893138  0.09455551  0.37996291     0.83320
O127        O  0.08907817  0.07636010  0.40693168    -0.67300
Ni128      Ni  0.09106755  0.04890325  0.05042017     1.27450
Ni129      Ni  0.07118126  0.11399137  0.01040104     1.26060
H130        H  0.10526887  0.12251118  0.45243271     0.37870
O131        O  0.06813184  0.12303753  0.13579382    -0.82090
O132        O  0.06318905  0.10449582  0.31730553    -0.66780
O133        O  0.08579558  0.11592231  0.21157298    -1.13380
C134        C  0.07976693  0.01495421  0.23843364     1.04800
O135        O  0.10392366  0.07446999  0.33038080    -0.79980
O136        O  0.13767210  0.05537788  0.27360030    -0.67570
Ni137      Ni  0.05759329  0.14005657  0.17899290     1.34870
C138        C  0.14582543  0.05724754  0.23911124     0.83540
O139        O  0.07015737  0.15177252  0.26631845    -0.80520
O140        O  0.04207212  0.16195854  0.21539606    -0.90800
C141        C  0.08210070  0.09054122  0.34075805     0.83110
O142        O  0.02269929  0.11337888  0.19517690    -0.69000
O143        O  0.08813374  0.01761324  0.27103550    -0.88290
C144        C  0.00980482  0.10910949  0.22836358     0.83940
C145        C  0.04852615  0.16637411  0.24749008     1.05510
H146        H  0.04983301  0.06543548  0.26719309     0.37310
O147        O  0.07229453  0.07245273  0.26251912    -1.10950
O148        O  0.12721854  0.06742854  0.21266500    -0.67600
Ni149      Ni  0.08053794  0.07555622  0.20989888     1.26350
O150        O  0.02605030  0.11067442  0.25726806    -0.67830
O151        O  0.07380987  0.03557535  0.21211423    -0.80120
C152        C  0.07907387  0.09960775  0.12912062     0.83320
O153        O  0.08704507  0.07961850  0.15544048    -0.67300
Ni154      Ni  0.09558836  0.04743336  0.29826948     1.27450
Ni155      Ni  0.07300486  0.11164190  0.26457819     1.26060
H156        H  0.10859845  0.12207023  0.20712444     0.37870
O157        O  0.08176528  0.37922149  0.08709646    -0.82090
O158        O  0.07228946  0.39309549  0.40568490    -0.66780
O159        O  0.09984731  0.38604188  0.00853241    -1.13380
C160        C  0.08031652  0.48534761  0.98417427     1.04800
O161        O  0.10785843  0.42872771  0.38765019    -0.79980
O162        O  0.14100987  0.45228780  0.43789697    -0.67570
Ni163      Ni  0.07712814  0.35904356  0.04695866     1.34870
C164        C  0.15153801  0.45162686  0.47045396     0.83540
O165        O  0.08552450  0.34694487  0.45596054    -0.80520
O166        O  0.06879546  0.33330098  0.01512623    -0.90800
C167        C  0.08846981  0.40986480  0.37971932     0.83110
O168        O  0.03611914  0.37683297  0.03500773    -0.69000
O169        O  0.08736408  0.48362901  0.45013658    -0.88290
C170        C  0.02271744  0.37935998  0.00348438     0.83940
C171        C  0.07152709  0.32887305  0.48209779     1.05510
H172        H  0.05571018  0.43038907  0.45977925     0.37310
O173        O  0.07904671  0.42662945  0.46027674    -1.10950
O174        O  0.13544332  0.43974310  0.00043297    -0.67600
Ni175      Ni  0.09006745  0.42546312  0.01115509     1.26350
O176        O  0.03870229  0.38149977  0.47226932    -0.67830
O177        O  0.07801466  0.46409553  0.01089000    -0.80120
C178        C  0.09166141  0.40337180  0.09152301     0.83320
O179        O  0.09946468  0.42303562  0.06385042    -0.67300
Ni180      Ni  0.09724145  0.45465684  0.42122106     1.27450
Ni181      Ni  0.08455853  0.38753792  0.45742561     1.26060
H182        H  0.12334519  0.38301554  0.00895455     0.37870
O183        O  0.06961123  0.38568472  0.33304086    -0.82090
O184        O  0.07682585  0.39170896  0.15717539    -0.66780
O185        O  0.10103718  0.38784668  0.26013591    -1.13380
C186        C  0.08289638  0.48650459  0.23057420     1.04800
O187        O  0.11235541  0.42738205  0.13804898    -0.79980
O188        O  0.14423810  0.45220393  0.18826957    -0.67570
Ni189      Ni  0.08185621  0.35986157  0.30013019     1.34870
C190        C  0.15401442  0.45219937  0.22104837     0.83540
O191        O  0.08739516  0.34712742  0.21199486    -0.80520
O192        O  0.09321051  0.33100328  0.27210450    -0.90800
C193        C  0.09341855  0.40793564  0.13086820     0.83110
O194        O  0.03765736  0.36278167  0.28322867    -0.69000
O195        O  0.09040872  0.48421444  0.19686448    -0.88290
C196        C  0.02450121  0.37312453  0.25275074     0.83940
C197        C  0.08086285  0.32871847  0.24142921     1.05510
H198        H  0.05867593  0.43142498  0.20818967     0.37310
O199        O  0.08191552  0.42739018  0.20953586    -1.10950
O200        O  0.13746236  0.44075731  0.25071546    -0.67600
Ni201      Ni  0.09180161  0.42703913  0.26064448     1.26350
O202        O  0.04067425  0.38352011  0.22266703    -0.67830
O203        O  0.08053205  0.46583508  0.25816531    -0.80120
C204        C  0.08636974  0.40645534  0.33994868     0.83320
O205        O  0.10051473  0.42422046  0.31346372    -0.67300
Ni206      Ni  0.10103728  0.45434089  0.16989291     1.27450
Ni207      Ni  0.08706502  0.38789252  0.20944638     1.26060
H208        H  0.12466808  0.38553706  0.26009599     0.37870
O209        O  0.44180363  0.37612378  0.42043130    -0.82090
O210        O  0.43694040  0.38515095  0.09386756    -0.66780
O211        O  0.41091219  0.37739725  0.49355969    -1.13380
C212        C  0.40856550  0.47226568  0.48810610     1.04800
O213        O  0.39277314  0.41186994  0.10091702    -0.79980
O214        O  0.35689108  0.41032821  0.03771209    -0.67570
Ni215      Ni  0.43146820  0.35154671  0.46673533     1.34870
C216        C  0.34600139  0.41924363  0.50572307     0.83540
O217        O  0.44197450  0.33819421  0.05768868    -0.80520
O218        O  0.41924162  0.32570253  0.51086691    -0.90800
C219        C  0.41848369  0.39916698  0.11372277     0.83110
O220        O  0.47490042  0.36239966  0.48073353    -0.69000
O221        O  0.38349612  0.46209665  0.00784709    -0.88290
C222        C  0.48729895  0.37663962  0.50358590     0.83940
C223        C  0.44059547  0.32084713  0.03466701     1.05510
H224        H  0.44078071  0.42837816  0.03018061     0.37310
O225        O  0.42046943  0.41811285  0.02810372    -1.10950
O226        O  0.36591388  0.42201600  0.47700167    -0.67600
Ni227      Ni  0.41448019  0.41717548  0.47548691     1.26350
O228        O  0.47073962  0.38660031  0.02829460    -0.67830
O229        O  0.42169489  0.45835376  0.46427777    -0.80120
C230        C  0.42389234  0.39555823  0.40444310     0.83320
O231        O  0.40994075  0.41346117  0.42268044    -0.67300
Ni232      Ni  0.38765608  0.43591884  0.05325718     1.27450
Ni233      Ni  0.42652156  0.37851318  0.04436233     1.26060
H234        H  0.38775028  0.37219785  0.49618909     0.37870
O235        O  0.44364594  0.37977756  0.16937002    -0.82090
O236        O  0.43721005  0.38252276  0.34364885    -0.66780
O237        O  0.41186698  0.37872927  0.24162688    -1.13380
C238        C  0.41261536  0.47302608  0.24035191     1.04800
O239        O  0.39372938  0.40996806  0.35058960    -0.79980
O240        O  0.35849942  0.41170476  0.28703114    -0.67570
Ni241      Ni  0.43088158  0.35327206  0.21308355     1.34870
C242        C  0.34818473  0.42137160  0.25495180     0.83540
O243        O  0.43848708  0.33650827  0.30442126    -0.80520
O244        O  0.41628679  0.32657205  0.25531111    -0.90800
C245        C  0.41873821  0.39651684  0.36376588     0.83110
O246        O  0.47526709  0.35922051  0.22884856    -0.69000
O247        O  0.38748409  0.46297854  0.25986983    -0.88290
C248        C  0.48859734  0.37218075  0.25248256     0.83940
C249        C  0.43687858  0.32039323  0.27983148     1.05510
H250        H  0.44410801  0.42696218  0.28118314     0.37310
O251        O  0.42327080  0.41773950  0.27833829    -1.10950
O252        O  0.36857719  0.42464300  0.22668351    -0.67600
Ni253      Ni  0.41687880  0.41859297  0.22534757     1.26350
O254        O  0.47248879  0.38303166  0.27709109    -0.67830
O255        O  0.42543733  0.45951742  0.21594256    -0.80120
C256        C  0.42494580  0.39874901  0.15381631     0.83320
O257        O  0.41145459  0.41653869  0.17237321    -0.67300
Ni258      Ni  0.39051221  0.43548767  0.30402928     1.27450
Ni259      Ni  0.42711208  0.37772075  0.29280698     1.26060
H260        H  0.38850491  0.37429682  0.24386787     0.37870
O261        O  0.94236642  0.27560777  0.45305051    -0.82090
O262        O  0.03486306  0.25551439  0.07349563    -0.66780
O263        O  0.99932374  0.25456794  0.48168267    -1.13380
C264        C  0.43992748  0.17401140  0.53067933     1.04800
O265        O  0.03485105  0.20844747  0.09211466    -0.79980
O266        O  0.03061165  0.19024192  0.03333969    -0.67570
Ni267      Ni  0.98794228  0.28869931  0.45070844     1.34870
C268        C  0.02377088  0.18756515  0.00115251     0.83540
O269        O  0.04617321  0.28633770  0.00802675    -0.80520
O270        O  0.03285408  0.30437908  0.44942751    -0.90800
C271        C  0.04530308  0.23349933  0.09394277     0.83110
O272        O  0.47532395  0.30972319  0.48796332    -0.69000
O273        O  0.46572324  0.16818091  0.04974463    -0.88290
C274        C  0.46878531  0.30378702  0.52273559     0.83940
C275        C  0.05089840  0.30404947  0.97754340     1.05510
H276        H  0.46753178  0.23307018  0.06355900     0.37310
O277        O  0.48401197  0.22665140  0.04711696    -1.10950
O278        O  0.99709315  0.19747019  0.48599875    -0.67600
Ni279      Ni  0.46626609  0.22661806  0.50002991     1.26350
O280        O  0.48247175  0.28308517  0.04314431    -0.67830
O281        O  0.43282284  0.19934562  0.51848633    -0.80120
C282        C  0.93441026  0.25351677  0.44022372     0.83320
O283        O  0.94692390  0.22990488  0.45370968    -0.67300
Ni284      Ni  0.49912108  0.19096356  0.07112677     1.27450
Ni285      Ni  0.01566559  0.25646393  0.02805494     1.26060
H286        H  0.01617544  0.24631190  0.46758930     0.37870
O287        O  0.46242955  0.27205663  0.18309498    -0.82090
O288        O  0.52671264  0.25849117  0.33521357    -0.66780
O289        O  0.00635112  0.25615311  0.23508090    -1.13380
C290        C  0.43799083  0.17631363  0.27819477     1.04800
O291        O  0.51766920  0.21413872  0.35489874    -0.79980
O292        O  0.02557227  0.18538809  0.29882098    -0.67570
Ni293      Ni  0.99840673  0.29042130  0.20033716     1.34870
C294        C  0.02529371  0.18518032  0.26403497     0.83540
O295        O  0.05048123  0.28729761  0.27019614    -0.80520
O296        O  0.03533368  0.31075737  0.21465113    -0.90800
C297        C  0.51097004  0.23955078  0.35740536     0.83110
O298        O  0.46807259  0.30423192  0.23335666    -0.69000
O299        O  0.45895630  0.17044073  0.30378387    -0.88290
C300        C  0.46455343  0.30288151  0.26846719     0.83940
C301        C  0.05467495  0.30701989  0.24165141     1.05510
H302        H  0.46069043  0.23800900  0.30547699     0.37310
O303        O  0.48031646  0.22977256  0.29641321    -1.10950
O304        O  0.00288749  0.19787447  0.24341455    -0.67600
Ni305      Ni  0.47033312  0.22778299  0.24745639     1.26350
O306        O  0.48317700  0.28794057  0.29126158    -0.67830
O307        O  0.43495254  0.20125049  0.26078044    -0.80120
C308        C  0.47032118  0.24825036  0.17582201     0.83320
O309        O  0.45820718  0.22734110  0.19750951    -0.67300
Ni310      Ni  0.48832448  0.19384894  0.32867958     1.27450
Ni311      Ni  0.01591113  0.25890838  0.28455532     1.26060
H312        H  0.02568134  0.24748749  0.22589447     0.37870
C313        C  0.47748112  0.24665824  0.36916635    -0.07320
C314        C  0.95260719  0.22497672  0.37585644    -0.18450
C315        C  0.92118231  0.23151177  0.38878862     0.09880
C316        C  0.91941505  0.25677697  0.40326553    -0.07250
C317        C  0.43510305  0.27997790  0.38037731    -0.18480
C318        C  0.46788975  0.27534275  0.36966745     0.09910
S319        S  0.89071059  0.20364131  0.40185257    -0.33450
S320        S  0.49621356  0.30535008  0.36492330    -0.33450
H321        H  0.52171776  0.28979008  0.38345075     0.27920
H322        H  0.86802186  0.22086355  0.41746704     0.27910
H323        H  0.95756011  0.20331058  0.37285063     0.18510
H324        H  0.42813056  0.30126351  0.38368291     0.18510
C325        C  0.06287383  0.23715670  0.12805983    -0.07320
C326        C  0.55162614  0.21537295  0.15690480    -0.18450
C327        C  0.51766968  0.21699132  0.16561513     0.09880
C328        C  0.50386532  0.24465497  0.16146986    -0.07250
C329        C  0.02514450  0.26866418  0.14938139    -0.18480
C330        C  0.05739340  0.26424614  0.13662805     0.09910
S331        S  0.49242751  0.18540601  0.16528467    -0.33450
S332        S  0.08341137  0.29413844  0.11667596    -0.33450
H333        H  0.10829778  0.27750036  0.10369855     0.27920
H334        H  0.46825522  0.19971588  0.14280710     0.27910
H335        H  0.56199637  0.19457634  0.15705877     0.18510
H336        H  0.01651109  0.29019310  0.14711964     0.18510
C337        C  0.23911914  0.03842094  0.32569122    -0.07320
C338        C  0.22362633  0.54881560  0.35578358    -0.18450
C339        C  0.24409613  0.55617019  0.38323714     0.09880
C340        C  0.27659064  0.54546581  0.38357371    -0.07250
C341        C  0.29205906  0.55043463  0.34777938    -0.18480
C342        C  0.27161497  0.04964874  0.31724605     0.09910
S343        S  0.23072715  0.57917328  0.41484203    -0.33450
S344        S  0.28402423  0.06847574  0.27164003    -0.33450
H345        H  0.25228434  0.06810491  0.25757375     0.27920
H346        H  0.19956069  0.58425723  0.39956983     0.27910
H347        H  0.19701597  0.54973105  0.35848619     0.18510
H348        H  0.31819585  0.55536981  0.34382986     0.18510
C349        C  0.27508927  0.54650795  0.13185062    -0.07320
C350        C  0.24190735  0.55535249  0.13312844    -0.18450
C351        C  0.22107601  0.54633418  0.10703423     0.09880
C352        C  0.23636940  0.03524651  0.07735551    -0.07250
C353        C  0.26831193  0.04663293  0.06646124    -0.18480
C354        C  0.28850595  0.05231263  0.09492581     0.09910
S355        S  0.17701069  0.54558959  0.11448751    -0.33450
S356        S  0.32787246  0.06961933  0.08416253    -0.33450
H357        H  0.33423444  0.07091280  0.12166336     0.27920
H358        H  0.17057115  0.53283444  0.08344739     0.27910
H359        H  0.23133989  0.56181988  0.15807040     0.18510
H360        H  0.27851971  0.04688240  0.03849196     0.18510
O361        O  0.25113262  0.50015009  0.90529673    -0.82090
O362        O  0.21077321  0.99327999  0.56397644    -0.66780
O363        O  0.24263457  0.01517390  0.96716307    -1.13380
C364        C  0.31603443  0.43697112  0.00516368     1.04800
O365        O  0.26067532  0.99073987  0.58446657    -0.79980
O366        O  0.31680179  0.98654940  0.54603194    -0.67570
Ni367      Ni  0.21500675  0.01685230  0.92676821     1.34870
C368        C  0.32230160  0.00824265  0.52048129     0.83540
O369        O  0.19363444  0.03402898  0.50949222    -0.80520
O370        O  0.17846926  0.03460904  0.95045694    -0.90800
C371        C  0.23392353  0.00410988  0.57906548     0.83110
O372        O  0.19599175  0.47968701  0.94151337    -0.69000
O373        O  0.29835300  0.43307516  0.53554247    -0.88290
C374        C  0.18123397  0.46957693  0.97242622     0.83940
C375        C  0.17451043  0.04184535  0.48280584     1.05510
H376        H  0.24248146  0.45568273  0.51190164     0.37310
O377        O  0.25412895  0.47251138  0.51607341    -1.10950
O378        O  0.30443515  0.01370639  0.99264692    -0.67600
Ni379      Ni  0.27806875  0.48753567  0.97110141     1.26350
O380        O  0.18812609  0.47810370  0.50249556    -0.67830
O381        O  0.31234958  0.45829278  0.97836570    -0.80120
C382        C  0.27750663  0.51502727  0.90208486     0.83320
O383        O  0.29941999  0.50619048  0.92466357    -0.67300
Ni384      Ni  0.27843410  0.46159832  0.55966463     1.27450
Ni385      Ni  0.22344292  0.00314027  0.51417451     1.26060
H386        H  0.25196565  0.03387620  0.96690892     0.37870
O387        O  0.25321859  0.50017614  0.65465687    -0.82090
O388        O  0.21331729  0.99625334  0.81285214    -0.66780
O389        O  0.24446931  0.01653002  0.71550050    -1.13380
C390        C  0.31824292  0.43901212  0.75387217     1.04800
O391        O  0.26346493  0.99361901  0.83253975    -0.79980
O392        O  0.31899882  0.98774816  0.79444559    -0.67570
Ni393      Ni  0.21655850  0.01639129  0.67591016     1.34870
C394        C  0.32447468  0.00945712  0.76906440     0.83540
O395        O  0.19602987  0.03611911  0.75732923    -0.80520
O396        O  0.18004322  0.03429968  0.69927364    -0.90800
C397        C  0.23674716  0.00715650  0.82745347     0.83110
O398        O  0.19935711  0.47922181  0.69209079    -0.69000
O399        O  0.30001082  0.43492701  0.78400030    -0.88290
C400        C  0.18387183  0.47023398  0.72281304     0.83940
C401        C  0.17663242  0.04305571  0.73066783     1.05510
H402        H  0.24467004  0.45780614  0.76060623     0.37310
O403        O  0.25642049  0.47462350  0.76463363    -1.10950
O404        O  0.30651622  0.01519413  0.74120943    -0.67600
Ni405      Ni  0.28033569  0.48948169  0.71943140     1.26350
O406        O  0.19010959  0.48007400  0.75230466    -0.67830
O407        O  0.31472331  0.46033382  0.72697445    -0.80120
C408        C  0.27864451  0.51621216  0.65033087     0.83320
O409        O  0.30124823  0.50850299  0.67259441    -0.67300
Ni410      Ni  0.28067445  0.46380074  0.80812263     1.27450
Ni411      Ni  0.22561113  0.00514099  0.76275160     1.26060
H412        H  0.25348267  0.03549534  0.71401811     0.37870
O413        O  0.39893468  0.04878607  0.60337168    -0.82090
O414        O  0.39704889  0.06124783  0.92520968    -0.66780
O415        O  0.42287827  0.05577977  0.52670099    -1.13380
C416        C  0.42211151  0.15164294  0.01532881     1.04800
O417        O  0.41112700  0.10633918  0.90282004    -0.79980
O418        O  0.45673642  0.10716847  0.95239741    -0.67570
Ni419      Ni  0.41086281  0.02535281  0.56564840     1.34870
C420        C  0.47233636  0.10451521  0.98216737     0.83540
O421        O  0.42232665  0.02073353  0.97227145    -0.80520
O422        O  0.42114398  0.99890927  0.53256775    -0.90800
C423        C  0.40504757  0.08103698  0.89788950     0.83110
O424        O  0.36612893  0.02208226  0.55339310    -0.69000
O425        O  0.42764922  0.15062270  0.98074562    -0.88290
C426        C  0.35238741  0.02579622  0.02225351     0.83940
C427        C  0.42093986  0.99879079  0.99744298     1.05510
H428        H  0.37257614  0.09796279  0.98300944     0.37310
O429        O  0.39628191  0.09618052  0.98223963    -1.10950
O430        O  0.45839910  0.10303992  0.51463067    -0.67600
Ni431      Ni  0.41293348  0.09353551  0.53208705     1.26350
O432        O  0.36470481  0.04156456  0.99233700    -0.67830
O433        O  0.40548138  0.13218316  0.53628944    -0.80120
C434        C  0.41099586  0.07236973  0.60925284     0.83320
O435        O  0.42632888  0.08918025  0.58291858    -0.67300
Ni436      Ni  0.41652973  0.12588054  0.94513643     1.27450
Ni437      Ni  0.40873912  0.05800174  0.97679947     1.26060
H438        H  0.44655185  0.05410220  0.52480726     0.37870
O439        O  0.39690845  0.05083413  0.85239627    -0.82090
O440        O  0.40018095  0.06051990  0.67555900    -0.66780
O441        O  0.42430609  0.05722299  0.77717281    -1.13380
C442        C  0.42109002  0.15311543  0.76306900     1.04800
O443        O  0.41405134  0.10539073  0.65202881    -0.79980
O444        O  0.45905177  0.10862658  0.70239913    -0.67570
Ni445      Ni  0.41180313  0.02711941  0.81631458     1.34870
C446        C  0.47401796  0.10616928  0.73264875     0.83540
O447        O  0.42562624  0.02130365  0.72373063    -0.80520
O448        O  0.42472969  0.00046178  0.78444018    -0.90800
C449        C  0.40789203  0.07990502  0.64781386     0.83110
O450        O  0.36783975  0.02272699  0.80255294    -0.69000
O451        O  0.42730726  0.15168943  0.72870619    -0.88290
C452        C  0.35448212  0.02671550  0.77114183     0.83940
C453        C  0.42443522  0.99969584  0.74934586     1.05510
H454        H  0.37434133  0.09809429  0.73130399     0.37310
O455        O  0.39807770  0.09661875  0.73114039    -1.10950
O456        O  0.45929307  0.10481949  0.76488302    -0.67600
Ni457      Ni  0.41348331  0.09492067  0.78148413     1.26350
O458        O  0.36727244  0.04223610  0.74145248    -0.67830
O459        O  0.40506051  0.13355717  0.78455563    -0.80120
C460        C  0.40890976  0.07417073  0.85897921     0.83320
O461        O  0.42511468  0.09098246  0.83318297    -0.67300
Ni462      Ni  0.41814584  0.12603282  0.69367105     1.27450
Ni463      Ni  0.41131537  0.05848638  0.72698434     1.26060
H464        H  0.44802769  0.05578521  0.77594399     0.37870
O465        O  0.06461724  0.11704594  0.88473985    -0.82090
O466        O  0.06339535  0.11013092  0.56455377    -0.66780
O467        O  0.08285960  0.11553806  0.95800547    -1.13380
C468        C  0.07782080  0.01399536  0.99270404     1.04800
O469        O  0.10196819  0.07790858  0.57900718    -0.79980
O470        O  0.13381700  0.05091820  0.52619230    -0.67570
Ni471      Ni  0.05310327  0.13663803  0.92381388     1.34870
C472        C  0.14386186  0.05593062  0.49195154     0.83540
O473        O  0.06765363  0.15458795  0.50489813    -0.80520
O474        O  0.03637389  0.16113796  0.95535109    -0.90800
C475        C  0.08154898  0.09557686  0.58887366     0.83110
O476        O  0.02008880  0.10921555  0.94394198    -0.69000
O477        O  0.08082502  0.01703339  0.52652437    -0.88290
C478        C  0.00769759  0.10730115  0.97713680     0.83940
C479        C  0.04511812  0.16782848  0.48532199     1.05510
H480        H  0.04801282  0.06712276  0.51598383     0.37310
O481        O  0.07064063  0.07379298  0.51219158    -1.10950
O482        O  0.12711629  0.06926080  0.96544521    -0.67600
Ni483      Ni  0.08027172  0.07463213  0.96033951     1.26350
O484        O  0.02418702  0.11167154  0.50478379    -0.67830
O485        O  0.07616719  0.03436488  0.96500824    -0.80120
C486        C  0.07884631  0.09465472  0.87997691     0.83320
O487        O  0.08889690  0.07642372  0.90696440    -0.67300
Ni488      Ni  0.09104180  0.04874597  0.55041262     1.27450
Ni489      Ni  0.07121597  0.11386057  0.51041814     1.26060
H490        H  0.10524290  0.12257692  0.95241604     0.37870
O491        O  0.06785665  0.12277306  0.63584341    -0.82090
O492        O  0.06310379  0.10447558  0.81731300    -0.66780
O493        O  0.08569039  0.11593577  0.71156930    -1.13380
C494        C  0.08082490  0.01494181  0.73860539     1.04800
O495        O  0.10407537  0.07472440  0.83041861    -0.79980
O496        O  0.13803572  0.05576263  0.77372998    -0.67570
Ni497      Ni  0.05726856  0.13983807  0.67899553     1.34870
C498        C  0.14618880  0.05753886  0.73925682     0.83540
O499        O  0.06984845  0.15173231  0.76625878    -0.80520
O500        O  0.04167195  0.16175596  0.71536799    -0.90800
C501        C  0.08208587  0.09064288  0.84078354     0.83110
O502        O  0.02256132  0.11300666  0.69530676    -0.69000
O503        O  0.08885918  0.01765427  0.77129088    -0.88290
C504        C  0.00967436  0.10881496  0.72848688     0.83940
C505        C  0.04817456  0.16626108  0.74741598     1.05510
H506        H  0.05012538  0.06527472  0.76719297     0.37310
O507        O  0.07254313  0.07241256  0.76256233    -1.10950
O508        O  0.12766430  0.06779275  0.71277108    -0.67600
Ni509      Ni  0.08092181  0.07553102  0.70994123     1.26350
O510        O  0.02594878  0.11043082  0.75735445    -0.67830
O511        O  0.07481801  0.03548796  0.71220253    -0.80120
C512        C  0.07915894  0.09946467  0.62915811     0.83320
O513        O  0.08748919  0.07961049  0.65547226    -0.67300
Ni514      Ni  0.09599764  0.04758526  0.79840448     1.27450
Ni515      Ni  0.07292050  0.11161550  0.76457986     1.26060
H516        H  0.10842807  0.12226894  0.70709914     0.37870
O517        O  0.08177234  0.37926112  0.58708931    -0.82090
O518        O  0.07234868  0.39314072  0.90563453    -0.66780
O519        O  0.09987941  0.38600201  0.50853984    -1.13380
C520        C  0.08022577  0.48533966  0.48417436     1.04800
O521        O  0.10797205  0.42874124  0.88760486    -0.79980
O522        O  0.14121269  0.45191439  0.93806545    -0.67570
Ni523      Ni  0.07716929  0.35902810  0.54699613     1.34870
C524        C  0.15156872  0.45153324  0.97063668     0.83540
O525        O  0.08552568  0.34698783  0.95592065    -0.80520
O526        O  0.06886602  0.33324633  0.51519601    -0.90800
C527        C  0.08857931  0.40988093  0.87967794     0.83110
O528        O  0.03614209  0.37677783  0.53504175    -0.69000
O529        O  0.08778123  0.48363739  0.95020775    -0.88290
C530        C  0.02273704  0.37929589  0.50352373     0.83940
C531        C  0.07148958  0.32892518  0.98203437     1.05510
H532        H  0.05574090  0.43046956  0.95959238     0.37310
O533        O  0.07906573  0.42667134  0.96020917    -1.10950
O534        O  0.13556379  0.43963720  0.50025949    -0.67600
Ni535      Ni  0.09018502  0.42543856  0.51116739     1.26350
O536        O  0.03869137  0.38156346  0.97222754    -0.67830
O537        O  0.07823345  0.46409991  0.51092834    -0.80120
C538        C  0.09179712  0.40337673  0.59151328     0.83320
O539        O  0.09971712  0.42300314  0.56383376    -0.67300
Ni540      Ni  0.09750274  0.45465410  0.92124563     1.27450
Ni541      Ni  0.08456636  0.38757902  0.95739405     1.26060
H542        H  0.12337273  0.38294789  0.50893739     0.37870
O543        O  0.06973896  0.38569557  0.83300105    -0.82090
O544        O  0.07689345  0.39172396  0.65714851    -0.66780
O545        O  0.10111678  0.38779386  0.76010655    -1.13380
C546        C  0.08298737  0.48652319  0.73051342     1.04800
O547        O  0.11249789  0.42735093  0.63809995    -0.79980
O548        O  0.14423503  0.45254299  0.68814412    -0.67570
Ni549      Ni  0.08189591  0.35983713  0.80010299     1.34870
C550        C  0.15413760  0.45229352  0.72092910     0.83540
O551        O  0.08733973  0.34709186  0.71196990    -0.80520
O552        O  0.09312409  0.33093493  0.77208607    -0.90800
C553        C  0.09354023  0.40793366  0.63086776     0.83110
O554        O  0.03770157  0.36281371  0.78322724    -0.69000
O555        O  0.09020704  0.48422598  0.69673775    -0.88290
C556        C  0.02455040  0.37314697  0.75274577     0.83940
C557        C  0.08078093  0.32867346  0.74139499     1.05510
H558        H  0.05880893  0.43140977  0.70828361     0.37310
O559        O  0.08205228  0.42737494  0.70954667    -1.10950
O560        O  0.13770765  0.44064485  0.75059472    -0.67600
Ni561      Ni  0.09201170  0.42702244  0.76061575     1.26350
O562        O  0.04072316  0.38353951  0.72265805    -0.67830
O563        O  0.08088215  0.46586261  0.75813862    -0.80120
C564        C  0.08653366  0.40644678  0.83991035     0.83320
O565        O  0.10075170  0.42417629  0.81343283    -0.67300
Ni566      Ni  0.10100954  0.45434790  0.66983555     1.27450
Ni567      Ni  0.08711835  0.38786673  0.70942925     1.26060
H568        H  0.12474031  0.38543398  0.76005554     0.37870
O569        O  0.44177913  0.37613545  0.92040807    -0.82090
O570        O  0.43702257  0.38510780  0.59390529    -0.66780
O571        O  0.41086451  0.37740213  0.99352222    -1.13380
C572        C  0.40842864  0.47225129  0.98798728     1.04800
O573        O  0.39284563  0.41180248  0.60096516    -0.79980
O574        O  0.35695851  0.41036198  0.53774643    -0.67570
Ni575      Ni  0.43144713  0.35156190  0.96670900     1.34870
C576        C  0.34590469  0.41919548  0.00570052     0.83540
O577        O  0.44199862  0.33814864  0.55771918    -0.80520
O578        O  0.41922046  0.32572918  0.01084790    -0.90800
C579        C  0.41858610  0.39914386  0.61375228     0.83110
O580        O  0.47487322  0.36244580  0.98069921    -0.69000
O581        O  0.38363151  0.46212385  0.50797608    -0.88290
C582        C  0.48726502  0.37670027  0.00353900     0.83940
C583        C  0.44061094  0.32080478  0.53469305     1.05510
H584        H  0.44087333  0.42833695  0.53026141     0.37310
O585        O  0.42055454  0.41808617  0.52817109    -1.10950
O586        O  0.36580084  0.42196401  0.97696135    -0.67600
Ni587      Ni  0.41438377  0.41717158  0.97542267     1.26350
O588        O  0.47078461  0.38654451  0.52834120    -0.67830
O589        O  0.42156483  0.45834803  0.96416030    -0.80120
C590        C  0.42384254  0.39554358  0.90440790     0.83320
O591        O  0.40984450  0.41343013  0.92263199    -0.67300
Ni592      Ni  0.38776026  0.43589823  0.55334263     1.27450
Ni593      Ni  0.42657325  0.37847944  0.54440770     1.26060
H594        H  0.38770791  0.37218390  0.99615754     0.37870
O595        O  0.44376962  0.37980068  0.66939029    -0.82090
O596        O  0.43721390  0.38250081  0.84363952    -0.66780
O597        O  0.41192398  0.37879108  0.74158621    -1.13380
C598        C  0.41292633  0.47308834  0.74037060     1.04800
O599        O  0.39372644  0.40993777  0.85051947    -0.79980
O600        O  0.35861117  0.41185294  0.78689589    -0.67570
Ni601      Ni  0.43090267  0.35330663  0.71306266     1.34870
C602        C  0.34836477  0.42154708  0.75479624     0.83540
O603        O  0.43842374  0.33650717  0.80439322    -0.80520
O604        O  0.41620920  0.32662934  0.75526524    -0.90800
C605        C  0.41872372  0.39649463  0.86373279     0.83110
O606        O  0.47528372  0.35919640  0.72887467    -0.69000
O607        O  0.38776975  0.46310821  0.75990789    -0.88290
C608        C  0.48861606  0.37216163  0.75250053     0.83940
C609        C  0.43678018  0.32040443  0.77979510     1.05510
H610        H  0.44424360  0.42694959  0.78122399     0.37310
O611        O  0.42339393  0.41776167  0.77833804    -1.10950
O612        O  0.36879814  0.42482125  0.72657482    -0.67600
Ni613      Ni  0.41705883  0.41864641  0.72533359     1.26350
O614        O  0.47251501  0.38300398  0.77711675    -0.67830
O615        O  0.42571337  0.45954420  0.71597606    -0.80120
C616        C  0.42509601  0.39878116  0.65381780     0.83320
O617        O  0.41166074  0.41661442  0.67234600    -0.67300
Ni618      Ni  0.39065781  0.43553732  0.80401080     1.27450
Ni619      Ni  0.42713473  0.37773638  0.79278739     1.26060
H620        H  0.38855054  0.37440668  0.74379162     0.37870
O621        O  0.94231550  0.27567862  0.95299612    -0.82090
O622        O  0.03486015  0.25541956  0.57356667    -0.66780
O623        O  0.99927427  0.25463670  0.98163971    -1.13380
C624        C  0.43984198  0.17412835  0.03077884     1.04800
O625        O  0.03488996  0.20834450  0.59215001    -0.79980
O626        O  0.03071480  0.19022691  0.53328746    -0.67570
Ni627      Ni  0.98789385  0.28876380  0.95065249     1.34870
C628        C  0.02385089  0.18749909  0.50112681     0.83540
O629        O  0.04618217  0.28629063  0.50811359    -0.80520
O630        O  0.03280429  0.30444800  0.94936238    -0.90800
C631        C  0.04528711  0.23340408  0.59402926     0.83110
O632        O  0.47529447  0.30977705  0.98792021    -0.69000
O633        O  0.46582361  0.16807321  0.54962747    -0.88290
C634        C  0.46877800  0.30384874  0.02269741     0.83940
C635        C  0.05092778  0.30399420  0.47762300     1.05510
H636        H  0.46754676  0.23295622  0.56357645     0.37310
O637        O  0.48403577  0.22655802  0.54712640    -1.10950
O638        O  0.99701942  0.19754485  0.98601776    -0.67600
Ni639      Ni  0.46622336  0.22669613  0.00003505     1.26350
O640        O  0.48245587  0.28300684  0.54318274    -0.67830
O641        O  0.43276597  0.19945921  0.01853710    -0.80120
C642        C  0.93434887  0.25357841  0.94019704     0.83320
O643        O  0.94685770  0.22996947  0.95370293    -0.67300
Ni644      Ni  0.49917932  0.19086550  0.57108179     1.27450
Ni645      Ni  0.01568911  0.25638747  0.52810906     1.26060
H646        H  0.01611303  0.24636921  0.96754228     0.37870
O647        O  0.46222926  0.27205073  0.68305686    -0.82090
O648        O  0.52653826  0.25841522  0.83515323    -0.66780
O649        O  0.00616651  0.25612640  0.73500871    -1.13380
C650        C  0.43774933  0.17624539  0.77815220     1.04800
O651        O  0.51744691  0.21407145  0.85484239    -0.79980
O652        O  0.02531835  0.18534844  0.79870970    -0.67570
Ni653      Ni  0.99828024  0.29041259  0.70026722     1.34870
C654        C  0.02500292  0.18511956  0.76392960     0.83540
O655        O  0.05036021  0.28724352  0.77012209    -0.80520
O656        O  0.03524892  0.31071816  0.71457450    -0.90800
C657        C  0.51077838  0.23948943  0.85734661     0.83110
O658        O  0.46794129  0.30422663  0.73331311    -0.69000
O659        O  0.45869737  0.17038953  0.80376046    -0.88290
C660        C  0.46441962  0.30286400  0.76842558     0.83940
C661        C  0.05458049  0.30697253  0.74158575     1.05510
H662        H  0.46047979  0.23796697  0.80543897     0.37310
O663        O  0.48009383  0.22971989  0.79636317    -1.10950
O664        O  0.00261711  0.19784003  0.74331078    -0.67600
Ni665      Ni  0.47009076  0.22773907  0.74740139     1.26350
O666        O  0.48301402  0.28789028  0.79121914    -0.67830
O667        O  0.43471080  0.20118244  0.76071653    -0.80120
C668        C  0.47008762  0.24824035  0.67576714     0.83320
O669        O  0.45795063  0.22733294  0.69744541    -0.67300
Ni670      Ni  0.48807855  0.19379564  0.82863587     1.27450
Ni671      Ni  0.01575848  0.25886650  0.78447757     1.26060
H672        H  0.02548349  0.24744285  0.72582261     0.37870
C673        C  0.47730670  0.24662933  0.86912196    -0.07320
C674        C  0.95246451  0.22498047  0.87583430    -0.18450
C675        C  0.92106192  0.23154190  0.88880242     0.09880
C676        C  0.91933402  0.25682085  0.90325128    -0.07250
C677        C  0.43498738  0.27998994  0.88036576    -0.18480
C678        C  0.46775641  0.27532438  0.86962090     0.09910
S679        S  0.89056357  0.20369879  0.90190759    -0.33450
S680        S  0.49612160  0.30530480  0.86485531    -0.33450
H681        H  0.52159923  0.28972352  0.88340814     0.27920
H682        H  0.86790817  0.22094796  0.91752320     0.27910
H683        H  0.95738812  0.20330929  0.87282743     0.18510
H684        H  0.42804874  0.30128496  0.88366487     0.18510
C685        C  0.06274609  0.23706482  0.62821574    -0.07320
C686        C  0.55138570  0.21530582  0.65702390    -0.18450
C687        C  0.51740985  0.21695046  0.66560434     0.09880
C688        C  0.50362865  0.24462261  0.66141852    -0.07250
C689        C  0.02497463  0.26862437  0.64935755    -0.18480
C690        C  0.05725449  0.26416720  0.63673790     0.09910
S691        S  0.49215612  0.18538429  0.66520396    -0.33450
S692        S  0.08335496  0.29402800  0.61687967    -0.33450
H693        H  0.10827408  0.27735657  0.60403579     0.27920
H694        H  0.46800482  0.19972102  0.64272025     0.27910
H695        H  0.56174766  0.19450094  0.65722642     0.18510
H696        H  0.01636660  0.29016376  0.64705476     0.18510
C697        C  0.23919434  0.03853012  0.82587699    -0.07320
C698        C  0.22368962  0.54883968  0.85557498    -0.18450
C699        C  0.24401565  0.55615440  0.88317444     0.09880
C700        C  0.27651794  0.54546074  0.88366666    -0.07250
C701        C  0.29214415  0.55047633  0.84795864    -0.18480
C702        C  0.27167706  0.04975284  0.81733006     0.09910
S703        S  0.23048341  0.57913522  0.91473602    -0.33450
S704        S  0.28404759  0.06840623  0.77161920    -0.33450
H705        H  0.25227747  0.06804230  0.75763208     0.27920
H706        H  0.19935921  0.58418204  0.89934144     0.27910
H707        H  0.19707169  0.54975738  0.85811971     0.18510
H708        H  0.31828826  0.55541476  0.84416402     0.18510
C709        C  0.27513684  0.54660095  0.63158014    -0.07320
C710        C  0.24193841  0.55540247  0.63291572    -0.18450
C711        C  0.22106243  0.54629509  0.60692462     0.09880
C712        C  0.23652505  0.03533300  0.57755196    -0.07250
C713        C  0.26850679  0.04671326  0.56683882    -0.18480
C714        C  0.28862844  0.05220122  0.59546528     0.09910
S715        S  0.17700654  0.54548568  0.61450170    -0.33450
S716        S  0.32803164  0.06948660  0.58500180    -0.33450
H717        H  0.33432517  0.07049827  0.62259915     0.27920
H718        H  0.17051776  0.53269037  0.58350688     0.27910
H719        H  0.23140681  0.56189073  0.65786114     0.18510
H720        H  0.27881406  0.04703502  0.53889107     0.18510
O721        O  0.25110692  0.99998370  0.40527668    -0.82090
O722        O  0.21068289  0.49311086  0.06397835    -0.66780
O723        O  0.24263837  0.51510480  0.46719456    -1.13380
C724        C  0.31605011  0.93698557  0.50523616     1.04800
O725        O  0.26055394  0.49056398  0.08455481    -0.79980
O726        O  0.31674830  0.48647373  0.04610412    -0.67570
Ni727      Ni  0.21501404  0.51682724  0.42678611     1.34870
C728        C  0.32228562  0.50817038  0.02056255     0.83540
O729        O  0.19355796  0.53395404  0.00959905    -0.80520
O730        O  0.17848881  0.53457747  0.45049597    -0.90800
C731        C  0.23381436  0.50394408  0.07909731     0.83110
O732        O  0.19610565  0.97951146  0.44169990    -0.69000
O733        O  0.29832903  0.93316586  0.03558773    -0.88290
C734        C  0.18133937  0.96947633  0.47263030     0.83940
C735        C  0.17448348  0.54187535  0.98289569     1.05510
H736        H  0.24248082  0.95577490  0.01191902     0.37310
O737        O  0.25412741  0.97260822  0.01607567    -1.10950
O738        O  0.30446120  0.51361193  0.49266665    -0.67600
Ni739      Ni  0.27808963  0.98753324  0.47108108     1.26350
O740        O  0.18814123  0.97818954  0.00251693    -0.67830
O741        O  0.31237664  0.95829043  0.47840495    -0.80120
C742        C  0.27745363  0.01489613  0.40197175     0.83320
O743        O  0.29939125  0.00614729  0.42457252    -0.67300
Ni744      Ni  0.27842563  0.96171806  0.05966853     1.27450
Ni745      Ni  0.22337934  0.50307044  0.01420073     1.26060
H746        H  0.25197216  0.53380308  0.46696575     0.37870
O747        O  0.25320869  0.00027668  0.15455800    -0.82090
O748        O  0.21343361  0.49629927  0.31279872    -0.66780
O749        O  0.24454950  0.51661994  0.21544052    -1.13380
C750        C  0.31817007  0.93912443  0.25387860     1.04800
O751        O  0.26358726  0.49361439  0.33246539    -0.79980
O752        O  0.31908187  0.48771639  0.29434718    -0.67570
Ni753      Ni  0.21660997  0.51652188  0.17587274     1.34870
C754        C  0.32456594  0.50943563  0.26898875     0.83540
O755        O  0.19613770  0.53621332  0.25733110    -0.80520
O756        O  0.18014157  0.53447977  0.19925656    -0.90800
C757        C  0.23688618  0.50717765  0.32739047     0.83110
O758        O  0.19925113  0.97917701  0.19175663    -0.69000
O759        O  0.29984196  0.93495816  0.28392805    -0.88290
C760        C  0.18351929  0.97032271  0.22235551     0.83940
C761        C  0.17674417  0.54320106  0.23067623     1.05510
H762        H  0.24450666  0.95776298  0.26042308     0.37310
O763        O  0.25620160  0.97458607  0.26452818    -1.10950
O764        O  0.30662208  0.51519925  0.24112202    -0.67600
Ni765      Ni  0.28019194  0.98954683  0.21941312     1.26350
O766        O  0.18985723  0.97997223  0.25196586    -0.67830
O767        O  0.31466752  0.96046818  0.22700352    -0.80120
C768        C  0.27859674  0.01635760  0.15033644     0.83320
O769        O  0.30116297  0.00866722  0.17266013    -0.67300
Ni770      Ni  0.28039249  0.96375628  0.30807590     1.27450
Ni771      Ni  0.22570313  0.50521672  0.26269725     1.26060
H772        H  0.25358450  0.53557840  0.21395882     0.37870
O773        O  0.39894845  0.54870329  0.10340048    -0.82090
O774        O  0.39706471  0.56120592  0.42525958    -0.66780
O775        O  0.42288484  0.55575106  0.02674623    -1.13380
C776        C  0.42213420  0.65155493  0.51543405     1.04800
O777        O  0.41117670  0.60629173  0.40288739    -0.79980
O778        O  0.45677903  0.60713254  0.45245250    -0.67570
Ni779      Ni  0.41093523  0.52528914  0.06566870     1.34870
C780        C  0.47238313  0.60447023  0.48221911     0.83540
O781        O  0.42237483  0.52067446  0.47224888    -0.80520
O782        O  0.42129383  0.49888085  0.03255109    -0.90800
C783        C  0.40509322  0.58099281  0.39795104     0.83110
O784        O  0.36620608  0.52190378  0.05343969    -0.69000
O785        O  0.42765579  0.65055442  0.48084286    -0.88290
C786        C  0.35241325  0.52570495  0.52229151     0.83940
C787        C  0.42092367  0.49871267  0.49738690     1.05510
H788        H  0.37261123  0.59787907  0.48309682     0.37310
O789        O  0.39631730  0.59609935  0.48231255    -1.10950
O790        O  0.45841003  0.60302822  0.01473109    -0.67600
Ni791      Ni  0.41295199  0.59349686  0.03219641     1.26350
O792        O  0.36474147  0.54146745  0.49237339    -0.67830
O793        O  0.40550051  0.63213118  0.03647465    -0.80120
C794        C  0.41104137  0.57226952  0.10931207     0.83320
O795        O  0.42638266  0.58908778  0.08299949    -0.67300
Ni796      Ni  0.41655371  0.62581912  0.44521881     1.27450
Ni797      Ni  0.40877399  0.55792872  0.47683375     1.26060
H798        H  0.44655806  0.55408557  0.02480760     0.37870
O799        O  0.39703570  0.55074118  0.35253434    -0.82090
O800        O  0.40047127  0.56035151  0.17562474    -0.66780
O801        O  0.42440555  0.55712667  0.27729120    -1.13380
C802        C  0.42094950  0.65300330  0.26311105     1.04800
O803        O  0.41397885  0.60529539  0.15208114    -0.79980
O804        O  0.45902653  0.60857860  0.20242706    -0.67570
Ni805      Ni  0.41174287  0.52702410  0.31639189     1.34870
C806        C  0.47399422  0.60612860  0.23267926     0.83540
O807        O  0.42606934  0.52125591  0.22381123    -0.80520
O808        O  0.42441547  0.50032538  0.28449006    -0.90800
C809        C  0.40797730  0.57978285  0.14787465     0.83110
O810        O  0.36773247  0.52290040  0.30263035    -0.69000
O811        O  0.42720865  0.65158282  0.22875828    -0.88290
C812        C  0.35455788  0.52668843  0.27111604     0.83940
C813        C  0.42447797  0.49961676  0.24936709     1.05510
H814        H  0.37434992  0.59785178  0.23135276     0.37310
O815        O  0.39809377  0.59645441  0.23119784    -1.10950
O816        O  0.45926709  0.60477676  0.26491532    -0.67600
Ni817      Ni  0.41347405  0.59481293  0.28154051     1.26350
O818        O  0.36752649  0.54200114  0.24137867    -0.67830
O819        O  0.40492598  0.63343164  0.28457276    -0.80120
C820        C  0.40896756  0.57411751  0.35905441     0.83320
O821        O  0.42510977  0.59094820  0.33322672    -0.67300
Ni822      Ni  0.41807581  0.62592170  0.19373053     1.27450
Ni823      Ni  0.41152842  0.55837275  0.22705544     1.26060
H824        H  0.44813032  0.55570020  0.27616400     0.37870
O825        O  0.06462349  0.61704157  0.38485882    -0.82090
O826        O  0.06342707  0.61022235  0.06466112    -0.66780
O827        O  0.08292349  0.61552499  0.45811966    -1.13380
C828        C  0.07781879  0.51397701  0.49270618     1.04800
O829        O  0.10197006  0.57797135  0.07911975    -0.79980
O830        O  0.13379334  0.55094395  0.02630280    -0.67570
Ni831      Ni  0.05314738  0.63662549  0.42395589     1.34870
C832        C  0.14384396  0.55597062  0.99206360     0.83540
O833        O  0.06771773  0.65467243  0.00501800    -0.80520
O834        O  0.03644581  0.66111280  0.45552284    -0.90800
C835        C  0.08157112  0.59566109  0.08898010     0.83110
O836        O  0.02014983  0.60919448  0.44409995    -0.69000
O837        O  0.08075335  0.51711135  0.02661018    -0.88290
C838        C  0.00777320  0.60726834  0.47730169     0.83940
C839        C  0.04516192  0.66790615  0.98547281     1.05510
H840        H  0.04800578  0.56722317  0.01608654     0.37310
O841        O  0.07063726  0.57388368  0.01230074    -1.10950
O842        O  0.12717460  0.56925227  0.46553604    -0.67600
Ni843      Ni  0.08033449  0.57462701  0.46041989     1.26350
O844        O  0.02422008  0.61177541  0.00491626    -0.67830
O845        O  0.07622105  0.53436942  0.46503547    -0.80120
C846        C  0.07887314  0.59466425  0.38007473     0.83320
O847        O  0.08896636  0.57644430  0.40704569    -0.67300
Ni848      Ni  0.09101402  0.54881363  0.05051594     1.27450
Ni849      Ni  0.07124891  0.61394899  0.01053494     1.26060
H850        H  0.10530418  0.62256769  0.45251954     0.37870
O851        O  0.06774802  0.62281265  0.13597120    -0.82090
O852        O  0.06302857  0.60442418  0.31744749    -0.66780
O853        O  0.08560019  0.61601496  0.21169458    -1.13380
C854        C  0.08108014  0.51501676  0.23861500     1.04800
O855        O  0.10413496  0.57480132  0.33047675    -0.79980
O856        O  0.13816433  0.55589924  0.27377632    -0.67570
Ni857      Ni  0.05708808  0.63983926  0.17914671     1.34870
C858        C  0.14631203  0.55770035  0.23929810     0.83540
O859        O  0.06958667  0.65172477  0.26645047    -0.80520
O860        O  0.04140886  0.66170077  0.21555326    -0.90800
C861        C  0.08208776  0.59065246  0.34088140     0.83110
O862        O  0.02246008  0.61292274  0.19544841    -0.69000
O863        O  0.08907186  0.51771582  0.27132093    -0.88290
C864        C  0.00956799  0.60871379  0.22862619     0.83940
C865        C  0.04787433  0.66620670  0.24761317     1.05510
H866        H  0.05021321  0.56523562  0.26725596     0.37310
O867        O  0.07260778  0.57243423  0.26263908    -1.10950
O868        O  0.12778269  0.56798553  0.21283061    -0.67600
Ni869      Ni  0.08100793  0.57560636  0.21001862     1.26350
O870        O  0.02584337  0.61032426  0.25749777    -0.67830
O871        O  0.07505905  0.53556293  0.21222431    -0.80120
C872        C  0.07916889  0.59954865  0.12926320     0.83320
O873        O  0.08759327  0.57972524  0.15555887    -0.67300
Ni874      Ni  0.09613527  0.54765004  0.29845571     1.27450
Ni875      Ni  0.07282103  0.61162661  0.26471099     1.26060
H876        H  0.10831330  0.62241981  0.20722815     0.37870
O877        O  0.08198398  0.87930956  0.08725145    -0.82090
O878        O  0.07263840  0.89307227  0.40562297    -0.66780
O879        O  0.09999022  0.88601812  0.00873515    -1.13380
C880        C  0.08026432  0.98534519  0.98423919     1.04800
O881        O  0.10840237  0.92857751  0.38767201    -0.79980
O882        O  0.14156299  0.95147493  0.43831502    -0.67570
Ni883      Ni  0.07729241  0.85905905  0.04719832     1.34870
C884        C  0.15174953  0.95134518  0.47089572     0.83540
O885        O  0.08564831  0.84688623  0.45599273    -0.80520
O886        O  0.06894113  0.83326314  0.01543146    -0.90800
C887        C  0.08896343  0.90977606  0.37969448     0.83110
O888        O  0.03624385  0.87681159  0.03526582    -0.69000
O889        O  0.08826589  0.98352019  0.45023891    -0.88290
C890        C  0.02282841  0.87931433  0.00374913     0.83940
C891        C  0.07156032  0.82885340  0.48210241     1.05510
H892        H  0.05597214  0.93043199  0.45944710     0.37310
O893        O  0.07928275  0.92658869  0.46019333    -1.10950
O894        O  0.13566025  0.93966024  0.00037433    -0.67600
Ni895      Ni  0.09029824  0.92546481  0.01135332     1.26350
O896        O  0.03882839  0.88153892  0.47223279    -0.67830
O897        O  0.07834502  0.96413469  0.01104298    -0.80120
C898        C  0.09197792  0.90342122  0.09173995     0.83320
O899        O  0.09985725  0.92308219  0.06407190    -0.67300
Ni900      Ni  0.09794783  0.95450706  0.42129516     1.27450
Ni901      Ni  0.08474277  0.88749084  0.45743951     1.26060
H902        H  0.12348359  0.88296340  0.00912680     0.37870
O903        O  0.06959156  0.88595921  0.33291965    -0.82090
O904        O  0.07684235  0.89149027  0.15728491    -0.66780
O905        O  0.10076001  0.88748121  0.26027752    -1.13380
C906        C  0.08125402  0.98638897  0.23036263     1.04800
O907        O  0.11217591  0.92738775  0.13882303    -0.79980
O908        O  0.14183447  0.95597353  0.18762806    -0.67570
Ni909      Ni  0.08149021  0.85977476  0.30037694     1.34870
C910        C  0.15322544  0.95316563  0.22015825     0.83540
O911        O  0.08722949  0.84678316  0.21225789    -0.80520
O912        O  0.09249834  0.83068486  0.27254790    -0.90800
C913        C  0.09353352  0.90787558  0.13119607     0.83110
O914        O  0.03731912  0.86285108  0.28352261    -0.69000
O915        O  0.08563526  0.98401776  0.19612996    -0.88290
C916        C  0.02421279  0.87288329  0.25290680     0.83940
C917        C  0.08039486  0.82843282  0.24170882     1.05510
H918        H  0.05817947  0.93072754  0.20953920     0.37310
O919        O  0.08152769  0.92703138  0.21000817    -1.10950
O920        O  0.13803643  0.93963945  0.24967052    -0.67600
Ni921      Ni  0.09220543  0.92681831  0.26070471     1.26350
O922        O  0.04041175  0.88299430  0.22273012    -0.67830
O923        O  0.08187075  0.96588459  0.25815596    -0.80120
C924        C  0.08688108  0.90641282  0.33989643     0.83320
O925        O  0.10145802  0.92393493  0.31341859    -0.67300
Ni926      Ni  0.09862121  0.95440644  0.16974412     1.27450
Ni927      Ni  0.08681909  0.88756069  0.20966065     1.26060
H928        H  0.12435130  0.88491761  0.26022818     0.37870
O929        O  0.44180902  0.87611905  0.42056139    -0.82090
O930        O  0.43697716  0.88514057  0.09408148    -0.66780
O931        O  0.41088720  0.87738840  0.49364919    -1.13380
C932        C  0.40841596  0.97224255  0.48801793     1.04800
O933        O  0.39283609  0.91188747  0.10111189    -0.79980
O934        O  0.35694548  0.91045796  0.03787409    -0.67570
Ni935      Ni  0.43146648  0.85154108  0.46684886     1.34870
C936        C  0.34590717  0.91918782  0.50580415     0.83540
O937        O  0.44195541  0.83817397  0.05788875    -0.80520
O938        O  0.41923155  0.82571405  0.51099095    -0.90800
C939        C  0.41854550  0.89918844  0.11392071     0.83110
O940        O  0.47489914  0.86241503  0.48083058    -0.69000
O941        O  0.38367334  0.96218838  0.00809768    -0.88290
C942        C  0.48730019  0.87669175  0.50363906     0.83940
C943        C  0.44055536  0.82082956  0.03486199     1.05510
H944        H  0.44089238  0.92837039  0.03041350     0.37310
O945        O  0.42056708  0.91812994  0.02831991    -1.10950
O946        O  0.36580074  0.92193015  0.47706541    -0.67600
Ni947      Ni  0.41438515  0.91715200  0.47551359     1.26350
O948        O  0.47079195  0.88655830  0.02854506    -0.67830
O949        O  0.42155424  0.95833095  0.46420280    -0.80120
C950        C  0.42381071  0.89547123  0.40454774     0.83320
O951        O  0.40980902  0.91337215  0.42274258    -0.67300
Ni952      Ni  0.38778002  0.93597001  0.05347063     1.27450
Ni953      Ni  0.42656005  0.87851778  0.04457019     1.26060
H954        H  0.38773221  0.87216485  0.49629715     0.37870
O955        O  0.44361518  0.87973472  0.16957222    -0.82090
O956        O  0.43713312  0.88235321  0.34381788    -0.66780
O957        O  0.41176313  0.87874567  0.24176650    -1.13380
C958        C  0.41303878  0.97308452  0.24066830     1.04800
O959        O  0.39357554  0.90967852  0.35069245    -0.79980
O960        O  0.35848316  0.91197483  0.28703326    -0.67570
Ni961      Ni  0.43069495  0.85324436  0.21322271     1.34870
C962        C  0.34833543  0.92171570  0.25490221     0.83540
O963        O  0.43820867  0.83638576  0.30455215    -0.80520
O964        O  0.41598171  0.82655829  0.25540696    -0.90800
C965        C  0.41863488  0.89633879  0.36390407     0.83110
O966        O  0.47508588  0.85907426  0.22902389    -0.69000
O967        O  0.38791338  0.96318723  0.26035463    -0.88290
C968        C  0.48843735  0.87201185  0.25266134     0.83940
C969        C  0.43655016  0.82030300  0.27993537     1.05510
H970        H  0.44419871  0.92680976  0.28148185     0.37310
O971        O  0.42333075  0.91765917  0.27857405    -1.10950
O972        O  0.36881710  0.92495941  0.22673854    -0.67600
Ni973      Ni  0.41702122  0.91860467  0.22556967     1.26350
O974        O  0.47236155  0.88284915  0.27729492    -0.67830
O975        O  0.42576163  0.95946960  0.21630410    -0.80120
C976        C  0.42502021  0.89877961  0.15400684     0.83320
O977        O  0.41164143  0.91663109  0.17255192    -0.67300
Ni978      Ni  0.39066263  0.93544716  0.30431031     1.27450
Ni979      Ni  0.42699351  0.87762774  0.29297644     1.26060
H980        H  0.38837786  0.87441131  0.24395854     0.37870
O981        O  0.94236902  0.77564877  0.45332129    -0.82090
O982        O  0.03480895  0.75544135  0.07387222    -0.66780
O983        O  0.99935399  0.75455977  0.48185527    -1.13380
C984        C  0.43985062  0.67404719  0.53089120     1.04800
O985        O  0.03495897  0.70835778  0.09235740    -0.79980
O986        O  0.03073142  0.69021639  0.03351055    -0.67570
Ni987      Ni  0.98798046  0.78867968  0.45085937     1.34870
C988        C  0.02387333  0.68752905  0.00133183     0.83540
O989        O  0.04618094  0.78632607  0.00841618    -0.80520
O990        O  0.03293101  0.80429193  0.44945521    -0.90800
C991        C  0.04525231  0.73342893  0.09433012     0.83110
O992        O  0.47529430  0.80974155  0.48806050    -0.69000
O993        O  0.46576838  0.66806913  0.04980098    -0.88290
C994        C  0.46877452  0.80381568  0.52283774     0.83940
C995        C  0.05099862  0.80398230  0.97789159     1.05510
H996        H  0.46747907  0.73294427  0.06373179     0.37310
O997        O  0.48397119  0.72655217  0.04727992    -1.10950
O998        O  0.99708987  0.69748284  0.48623358    -0.67600
Ni999      Ni  0.46619736  0.72663472  0.50017053     1.26350
O1000       O  0.48237855  0.78300902  0.04334965    -0.67830
O1001       O  0.43275530  0.69937738  0.51866760    -0.80120
C1002       C  0.93431536  0.75354440  0.44057048     0.83320
O1003       O  0.94688932  0.72993623  0.45396897    -0.67300
Ni1004     Ni  0.49913184  0.69086258  0.07122986     1.27450
Ni1005     Ni  0.01570019  0.75640223  0.02838468     1.26060
H1006       H  0.01618911  0.74628670  0.46775975     0.37870
O1007       O  0.46202138  0.77196619  0.18318015    -0.82090
O1008       O  0.52629748  0.75829361  0.33528565    -0.66780
O1009       O  0.00574314  0.75596763  0.23518282    -1.13380
C1010       C  0.43756766  0.67613338  0.27822088     1.04800
O1011       O  0.51717771  0.71395796  0.35500266    -0.79980
O1012       O  0.02491625  0.68524405  0.29891433    -0.67570
Ni1013     Ni  0.99787101  0.79025718  0.20044103     1.34870
C1014       C  0.02463540  0.68501510  0.26412894     0.83540
O1015       O  0.04991398  0.78704389  0.27030144    -0.80520
O1016       O  0.03485326  0.81056339  0.21475823    -0.90800
C1017       C  0.51052023  0.73938273  0.35747960     0.83110
O1018       O  0.46771086  0.80412768  0.23344800    -0.69000
O1019       O  0.45851486  0.67027840  0.30382805    -0.88290
C1020       C  0.46418234  0.80275599  0.26856038     0.83940
C1021       C  0.05417461  0.80677567  0.24178078     1.05510
H1022       H  0.46023698  0.73785302  0.30556286     0.37310
O1023       O  0.47985380  0.72961117  0.29648473    -1.10950
O1024       O  0.00223830  0.69769764  0.24349328    -0.67600
Ni1025     Ni  0.46987435  0.72764018  0.24750928     1.26350
O1026       O  0.48277660  0.78777919  0.29135246    -0.67830
O1027       O  0.43450583  0.70107309  0.26080525    -0.80120
C1028       C  0.46989494  0.74816370  0.17587425     0.83320
O1029       O  0.45776353  0.72724388  0.19753797    -0.67300
Ni1030     Ni  0.48785118  0.69368491  0.32874515     1.27450
Ni1031     Ni  0.01530436  0.75870139  0.28464907     1.26060
H1032       H  0.02507151  0.74729042  0.22601310     0.37870
C1033       C  0.47705619  0.74654810  0.36924132    -0.07320
C1034       C  0.95196137  0.72493902  0.37607056    -0.18450
C1035       C  0.92064457  0.73151484  0.38927962     0.09880
C1036       C  0.91905912  0.75679052  0.40375336    -0.07250
C1037       C  0.43479030  0.77993129  0.38056431    -0.18480
C1038       C  0.46753838  0.77524993  0.36975473     0.09910
S1039       S  0.89014733  0.70369464  0.40257260    -0.33450
S1040       S  0.49593278  0.80521185  0.36496433    -0.33450
H1041       H  0.52139233  0.78961778  0.38353631     0.27920
H1042       H  0.86762318  0.72095217  0.41836863     0.27910
H1043       H  0.95682520  0.70327115  0.37299115     0.18510
H1044       H  0.42787898  0.80123003  0.38387636     0.18510
C1045       C  0.06256024  0.73708223  0.12861393    -0.07320
C1046       C  0.55124084  0.71528642  0.15718666    -0.18450
C1047       C  0.51725236  0.71690781  0.16571980     0.09880
C1048       C  0.50344635  0.74456977  0.16153420    -0.07250
C1049       C  0.02460390  0.76856386  0.14959662    -0.18480
C1050       C  0.05695134  0.76416329  0.13714690     0.09910
S1051       S  0.49203149  0.68533038  0.16527502    -0.33450
S1052       S  0.08304221  0.79407004  0.11744572    -0.33450
H1053       H  0.10806854  0.77744596  0.10471704     0.27920
H1054       H  0.46787620  0.69966120  0.14279175     0.27910
H1055       H  0.56162541  0.69449109  0.15738222     0.18510
H1056       H  0.01593795  0.79008872  0.14724483     0.18510
C1057       C  0.23935916  0.53854595  0.32583807    -0.07320
C1058       C  0.22338896  0.04864544  0.35566863    -0.18450
C1059       C  0.24385463  0.05597893  0.38313582     0.09880
C1060       C  0.27636550  0.04530229  0.38344964    -0.07250
C1061       C  0.29182588  0.05028492  0.34765182    -0.18480
C1062       C  0.27185779  0.54975366  0.31737702     0.09910
S1063       S  0.23050204  0.07904424  0.41466752    -0.33450
S1064       S  0.28431435  0.56842612  0.27170374    -0.33450
H1065       H  0.25258009  0.56805252  0.25762576     0.27920
H1066       H  0.19931209  0.08408015  0.39943643     0.27910
H1067       H  0.19677934  0.04958365  0.35835001     0.18510
H1068       H  0.31796751  0.05520149  0.34370008     0.18510
C1069       C  0.27505603  0.04674616  0.13160483    -0.07320
C1070       C  0.24184194  0.05551057  0.13293024    -0.18450
C1071       C  0.22100224  0.04642506  0.10688928     0.09880
C1072       C  0.23645493  0.53517912  0.07748214    -0.07250
C1073       C  0.26842754  0.54653886  0.06666696    -0.18480
C1074       C  0.28859968  0.55212074  0.09520421     0.09910
S1075       S  0.17693773  0.04564655  0.11436348    -0.33450
S1076       S  0.32797455  0.56943855  0.08458382    -0.33450
H1077       H  0.33432589  0.57056350  0.12213536     0.27920
H1078       H  0.17049770  0.03281601  0.08338658     0.27910
H1079       H  0.23127350  0.06195671  0.15788674     0.18510
H1080       H  0.27866493  0.54683517  0.03869888     0.18510
O1081       O  0.25124510  0.00017494  0.90530486    -0.82090
O1082       O  0.21065113  0.49301372  0.56391255    -0.66780
O1083       O  0.24258927  0.51510808  0.96720877    -1.13380
C1084       C  0.31611707  0.93707933  0.00521985     1.04800
O1085       O  0.26048817  0.49048251  0.58457946    -0.79980
O1086       O  0.31674646  0.48645645  0.54616117    -0.67570
Ni1087     Ni  0.21492280  0.51680491  0.92684147     1.34870
C1088       C  0.32230906  0.50815481  0.52062622     0.83540
O1089       O  0.19353649  0.53389452  0.50955268    -0.80520
O1090       O  0.17841807  0.53454126  0.95059690    -0.90800
C1091       C  0.23375018  0.50385615  0.57907069     0.83110
O1092       O  0.19605607  0.97974364  0.94141432    -0.69000
O1093       O  0.29831995  0.93313059  0.53564623    -0.88290
C1094       C  0.18129777  0.96963326  0.97232382     0.83940
C1095       C  0.17450290  0.54186248  0.48281940     1.05510
H1096       H  0.24245908  0.95575169  0.51205100     0.37310
O1097       O  0.25413556  0.97258971  0.51613949    -1.10950
O1098       O  0.30442501  0.51361122  0.99261366    -0.67600
Ni1099     Ni  0.27813888  0.98762549  0.97108781     1.26350
O1100       O  0.18812167  0.97817768  0.50274485    -0.67830
O1101       O  0.31244935  0.95840020  0.97840930    -0.80120
C1102       C  0.27759892  0.01507947  0.90203694     0.83320
O1103       O  0.29950983  0.00630921  0.92465692    -0.67300
Ni1104     Ni  0.27849332  0.96174159  0.55968654     1.27450
Ni1105     Ni  0.22338953  0.50302619  0.51415486     1.26060
H1106       H  0.25193388  0.53380916  0.96693778     0.37870
O1107       O  0.25306144  0.00002156  0.65479160    -0.82090
O1108       O  0.21364219  0.49634094  0.81269107    -0.66780
O1109       O  0.24469127  0.51673347  0.71532607    -1.13380
C1110       C  0.31807320  0.93887761  0.75426078     1.04800
O1111       O  0.26380954  0.49365588  0.83231993    -0.79980
O1112       O  0.31927463  0.48770663  0.79418408    -0.67570
Ni1113     Ni  0.21674503  0.51658104  0.67578752     1.34870
C1114       C  0.32475047  0.50947255  0.76890126     0.83540
O1115       O  0.19628483  0.53627396  0.75725993    -0.80520
O1116       O  0.18026752  0.53450998  0.69919892    -0.90800
C1117       C  0.23711335  0.50722430  0.82724743     0.83110
O1118       O  0.19918760  0.97902805  0.69223644    -0.69000
O1119       O  0.29990214  0.93486090  0.78443454    -0.88290
C1120       C  0.18365649  0.97007954  0.72294413     0.83940
C1121       C  0.17687863  0.54324415  0.73061235     1.05510
H1122       H  0.24444902  0.95763396  0.76094237     0.37310
O1123       O  0.25618551  0.97447454  0.76491217    -1.10950
O1124       O  0.30676255  0.51532096  0.74107747    -0.67600
Ni1125     Ni  0.28011409  0.98927490  0.71968990     1.26350
O1126       O  0.18988336  0.97991775  0.75244108    -0.67830
O1127       O  0.31450802  0.96014582  0.72730869    -0.80120
C1128       C  0.27850792  0.01603487  0.65060324     0.83320
O1129       O  0.30107630  0.00822606  0.67286410    -0.67300
Ni1130     Ni  0.28045000  0.96376217  0.80842715     1.27450
Ni1131     Ni  0.22586443  0.50529005  0.76258470     1.26060
H1132       H  0.25369974  0.53570195  0.71383844     0.37870
O1133       O  0.39891742  0.54879960  0.60336917    -0.82090
O1134       O  0.39719521  0.56112568  0.92518362    -0.66780
O1135       O  0.42289449  0.55581640  0.52674183    -1.13380
C1136       C  0.42215994  0.65150112  0.01539047     1.04800
O1137       O  0.41122308  0.60623099  0.90283521    -0.79980
O1138       O  0.45679762  0.60704247  0.95245106    -0.67570
Ni1139     Ni  0.41103500  0.52535691  0.56568854     1.34870
C1140       C  0.47239136  0.60439939  0.98222377     0.83540
O1141       O  0.42249087  0.52062563  0.97222455    -0.80520
O1142       O  0.42155925  0.49895745  0.53258610    -0.90800
C1143       C  0.40518910  0.58092746  0.89787907     0.83110
O1144       O  0.36632709  0.52177559  0.55346230    -0.69000
O1145       O  0.42769612  0.65048795  0.98080519    -0.88290
C1146       C  0.35237695  0.52573284  0.02221942     0.83940
C1147       C  0.42082522  0.49865722  0.99734236     1.05510
H1148       H  0.37263321  0.59780207  0.98302459     0.37310
O1149       O  0.39634045  0.59603181  0.98226525    -1.10950
O1150       O  0.45841248  0.60309871  0.51472937    -0.67600
Ni1151     Ni  0.41296557  0.59355401  0.53221773     1.26350
O1152       O  0.36479367  0.54138410  0.99226206    -0.67830
O1153       O  0.40549766  0.63217523  0.53652373    -0.80120
C1154       C  0.41105484  0.57235289  0.60929052     0.83320
O1155       O  0.42644443  0.58913541  0.58298805    -0.67300
Ni1156     Ni  0.41659188  0.62575105  0.94518038     1.27450
Ni1157     Ni  0.40883423  0.55786565  0.97679561     1.26060
H1158       H  0.44656676  0.55416288  0.52474965     0.37870
O1159       O  0.39714065  0.55073688  0.85233223    -0.82090
O1160       O  0.40034017  0.56051467  0.67558133    -0.66780
O1161       O  0.42458188  0.55721011  0.77712500    -1.13380
C1162       C  0.42121320  0.65307056  0.76313477     1.04800
O1163       O  0.41418624  0.60538455  0.65204668    -0.79980
O1164       O  0.45922980  0.60866186  0.70239352    -0.67570
Ni1165     Ni  0.41213784  0.52706254  0.81623176     1.34870
C1166       C  0.47420236  0.60621490  0.73263995     0.83540
O1167       O  0.42591358  0.52134360  0.72363982    -0.80520
O1168       O  0.42519390  0.50045644  0.78432295    -0.90800
C1169       C  0.40800155  0.57989867  0.64783674     0.83110
O1170       O  0.36819528  0.52256051  0.80243428    -0.69000
O1171       O  0.42743477  0.65167432  0.72876069    -0.88290
C1172       C  0.35478860  0.52666248  0.77104901     0.83940
C1173       C  0.42480048  0.49972061  0.74922466     1.05510
H1174       H  0.37453753  0.59805347  0.73132968     0.37310
O1175       O  0.39827616  0.59659797  0.73115449    -1.10950
O1176       O  0.45948137  0.60484242  0.76488070    -0.67600
Ni1177     Ni  0.41368860  0.59487938  0.78149074     1.26350
O1178       O  0.36754472  0.54225449  0.74141338    -0.67830
O1179       O  0.40519935  0.63349249  0.78460313    -0.80120
C1180       C  0.40910320  0.57407802  0.85895849     0.83320
O1181       O  0.42531479  0.59091361  0.83319225    -0.67300
Ni1182     Ni  0.41829598  0.62603093  0.69369507     1.27450
Ni1183     Ni  0.41156148  0.55849527  0.72695168     1.26060
H1184       H  0.44830631  0.55580281  0.77587459     0.37870
O1185       O  0.06464221  0.61701186  0.88486922    -0.82090
O1186       O  0.06347812  0.61023561  0.56465682    -0.66780
O1187       O  0.08292458  0.61553438  0.95813315    -1.13380
C1188       C  0.07786628  0.51398081  0.99270042     1.04800
O1189       O  0.10203524  0.57799089  0.57909468    -0.79980
O1190       O  0.13386083  0.55102156  0.52623746    -0.67570
Ni1191     Ni  0.05314734  0.63660936  0.92395630     1.34870
C1192       C  0.14385344  0.55596315  0.49197751     0.83540
O1193       O  0.06772935  0.65468031  0.50500648    -0.80520
O1194       O  0.03644448  0.66110359  0.95552093    -0.90800
C1195       C  0.08164229  0.59568204  0.58896214     0.83110
O1196       O  0.02015780  0.60917133  0.94410086    -0.69000
O1197       O  0.08086223  0.51711635  0.52658965    -0.88290
C1198       C  0.00777242  0.60724593  0.97729793     0.83940
C1199       C  0.04516098  0.66790929  0.48547580     1.05510
H1200       H  0.04802681  0.56722390  0.51614884     0.37310
O1201       O  0.07065576  0.57388573  0.51231235    -1.10950
O1202       O  0.12722506  0.56933893  0.96562788    -0.67600
Ni1203     Ni  0.08039682  0.57463988  0.96042019     1.26350
O1204       O  0.02423517  0.61177641  0.50492209    -0.67830
O1205       O  0.07637489  0.53437698  0.96501813    -0.80120
C1206       C  0.07897792  0.59467159  0.88008216     0.83320
O1207       O  0.08911484  0.57647813  0.90705594    -0.67300
Ni1208     Ni  0.09109643  0.54882897  0.55049116     1.27450
Ni1209     Ni  0.07126958  0.61395355  0.51052691     1.26060
H1210       H  0.10529793  0.62259955  0.95254489     0.37870
O1211       O  0.06796520  0.62288310  0.63594116    -0.82090
O1212       O  0.06323161  0.60447464  0.81742098    -0.66780
O1213       O  0.08581346  0.61603249  0.71167242    -1.13380
C1214       C  0.08120832  0.51504605  0.73855810     1.04800
O1215       O  0.10427902  0.57479374  0.83050934    -0.79980
O1216       O  0.13835095  0.55606618  0.77369511    -0.67570
Ni1217     Ni  0.05735183  0.63991453  0.67912141     1.34870
C1218       C  0.14645262  0.55775368  0.73922274     0.83540
O1219       O  0.06987352  0.65176770  0.76642687    -0.80520
O1220       O  0.04171377  0.66179249  0.71552521    -0.90800
C1221       C  0.08224266  0.59067101  0.84088245     0.83110
O1222       O  0.02267630  0.61304515  0.69540929    -0.69000
O1223       O  0.08935542  0.51776087  0.77120705    -0.88290
C1224       C  0.00979253  0.60881860  0.72859148     0.83940
C1225       C  0.04818329  0.66628022  0.74759086     1.05510
H1226       H  0.05036914  0.56527943  0.76729615     0.37310
O1227       O  0.07276599  0.57246514  0.76263603    -1.10950
O1228       O  0.12787218  0.56793557  0.71275934    -0.67600
Ni1229     Ni  0.08111193  0.57562906  0.71000233     1.26350
O1230       O  0.02607033  0.61041029  0.75746589    -0.67830
O1231       O  0.07506027  0.53559004  0.71221639    -0.80120
C1232       C  0.07928185  0.59958278  0.62923989     0.83320
O1233       O  0.08764279  0.57973482  0.65553809    -0.67300
Ni1234     Ni  0.09635182  0.54767939  0.79840241     1.27450
Ni1235     Ni  0.07304317  0.61166278  0.76469063     1.26060
H1236       H  0.10854163  0.62239431  0.70720541     0.37870
O1237       O  0.08186475  0.87910714  0.58718132    -0.82090
O1238       O  0.07236156  0.89303922  0.90587361    -0.66780
O1239       O  0.09995443  0.88596692  0.50862024    -1.13380
C1240       C  0.08051357  0.98524890  0.48413503     1.04800
O1241       O  0.10791404  0.92866839  0.88778538    -0.79980
O1242       O  0.14104405  0.95229716  0.93799710    -0.67570
Ni1243     Ni  0.07718484  0.85897862  0.54701297     1.34870
C1244       C  0.15159530  0.95164958  0.97054208     0.83540
O1245       O  0.08561895  0.84691761  0.95619853    -0.80520
O1246       O  0.06881469  0.83327097  0.51516696    -0.90800
C1247       C  0.08852805  0.90979553  0.87987568     0.83110
O1248       O  0.03622670  0.87685101  0.53501774    -0.69000
O1249       O  0.08736382  0.98360185  0.95020508    -0.88290
C1250       C  0.02283559  0.87937818  0.50348549     0.83940
C1251       C  0.07160569  0.82886423  0.98234511     1.05510
H1252       H  0.05579418  0.93036128  0.95997861     0.37310
O1253       O  0.07913277  0.92660924  0.96045801    -1.10950
O1254       O  0.13549412  0.93972465  0.50067955    -0.67600
Ni1255     Ni  0.09011579  0.92538687  0.51120315     1.26350
O1256       O  0.03879438  0.88148698  0.97249724    -0.67830
O1257       O  0.07798686  0.96400500  0.51084737    -0.80120
C1258       C  0.09163575  0.90328588  0.59162578     0.83320
O1259       O  0.09934187  0.92298716  0.56395914    -0.67300
Ni1260     Ni  0.09727251  0.95461323  0.92133673     1.27450
Ni1261     Ni  0.08464859  0.88751731  0.95762727     1.26060
H1262       H  0.12345329  0.88295328  0.50909119     0.37870
O1263       O  0.06962248  0.88559332  0.83322014    -0.82090
O1264       O  0.07674814  0.89158491  0.65727499    -0.66780
O1265       O  0.10093764  0.88771340  0.76026037    -1.13380
C1266       C  0.08262133  0.98641218  0.73059496     1.04800
O1267       O  0.11228204  0.92725970  0.63823568    -0.79980
O1268       O  0.14393453  0.95254513  0.68824851    -0.67570
Ni1269     Ni  0.08175197  0.85975276  0.80027397     1.34870
C1270       C  0.15387362  0.95221343  0.72103626     0.83540
O1271       O  0.08727284  0.84698980  0.71211546    -0.80520
O1272       O  0.09299259  0.83086272  0.77224289    -0.90800
C1273       C  0.09335821  0.90782661  0.63099216     0.83110
O1274       O  0.03755228  0.86274898  0.78339632    -0.69000
O1275       O  0.08981671  0.98410729  0.69681990    -0.88290
C1276       C  0.02440415  0.87303059  0.75288889     0.83940
C1277       C  0.08066148  0.82859823  0.74154890     1.05510
H1278       H  0.05855854  0.93125210  0.70842765     0.37310
O1279       O  0.08181079  0.92725269  0.70968306    -1.10950
O1280       O  0.13745005  0.94055889  0.75070083    -0.67600
Ni1281     Ni  0.09176990  0.92693021  0.76075209     1.26350
O1282       O  0.04057610  0.88336683  0.72278104    -0.67830
O1283       O  0.08058730  0.96576382  0.75824219    -0.80120
C1284       C  0.08640283  0.90636721  0.84009462     0.83320
O1285       O  0.10053817  0.92412042  0.81357625    -0.67300
Ni1286     Ni  0.10070644  0.95424244  0.66994889     1.27450
Ni1287     Ni  0.08696291  0.88775645  0.70956739     1.26060
H1288       H  0.12456487  0.88537920  0.76021735     0.37870
O1289       O  0.44185679  0.87615891  0.92061296    -0.82090
O1290       O  0.43695758  0.88517584  0.59398782    -0.66780
O1291       O  0.41092083  0.87744087  0.99371367    -1.13380
C1292       C  0.40860830  0.97231746  0.98822101     1.04800
O1293       O  0.39280864  0.91192876  0.60101934    -0.79980
O1294       O  0.35689504  0.91034055  0.53782315    -0.67570
Ni1295     Ni  0.43147557  0.85158129  0.96690541     1.34870
C1296       C  0.34601180  0.91932843  0.00583324     0.83540
O1297       O  0.44201069  0.83819985  0.55780848    -0.80520
O1298       O  0.41919709  0.82574539  0.01102673    -0.90800
C1299       C  0.41849445  0.89919155  0.61384423     0.83110
O1300       O  0.47490882  0.86240347  0.98094825    -0.69000
O1301       O  0.38349438  0.96208414  0.50789082    -0.88290
C1302       C  0.48731159  0.87663844  0.00380524     0.83940
C1303       C  0.44060902  0.82083511  0.53480741     1.05510
H1304       H  0.44080085  0.92839102  0.53024754     0.37310
O1305       O  0.42048938  0.91812083  0.52818833    -1.10950
O1306       O  0.36594100  0.92207833  0.97712694    -0.67600
Ni1307     Ni  0.41450561  0.91721492  0.97563242     1.26350
O1308       O  0.47077836  0.88660992  0.52838662    -0.67830
O1309       O  0.42173852  0.95839030  0.96441009    -0.80120
C1310       C  0.42392687  0.89557128  0.90460677     0.83320
O1311       O  0.40997256  0.91348512  0.92282622    -0.67300
Ni1312     Ni  0.38767558  0.93594121  0.55332775     1.27450
Ni1313     Ni  0.42655363  0.87852224  0.54447412     1.26060
H1314       H  0.38775609  0.87225058  0.99633044     0.37870
O1315       O  0.44357129  0.87972485  0.66952189    -0.82090
O1316       O  0.43721007  0.88248797  0.84382215    -0.66780
O1317       O  0.41181529  0.87871052  0.74180400    -1.13380
C1318       C  0.41262424  0.97302869  0.74052511     1.04800
O1319       O  0.39372142  0.90991142  0.85076715    -0.79980
O1320       O  0.35848834  0.91172241  0.78722288    -0.67570
Ni1321     Ni  0.43079192  0.85323932  0.71325580     1.34870
C1322       C  0.34818336  0.92139142  0.75514146     0.83540
O1323       O  0.43842678  0.83646966  0.80458960    -0.80520
O1324       O  0.41618232  0.82655559  0.75549467    -0.90800
C1325       C  0.41874841  0.89648994  0.86393868     0.83110
O1326       O  0.47518705  0.85916493  0.72900927    -0.69000
O1327       O  0.38751837  0.96300198  0.76011753    -0.88290
C1328       C  0.48853365  0.87212428  0.75263410     0.83940
C1329       C  0.43678024  0.82035526  0.78000281     1.05510
H1330       H  0.44410517  0.92692449  0.78135518     0.37310
O1331       O  0.42326068  0.91771129  0.77851635    -1.10950
O1332       O  0.36857339  0.92465768  0.72687422    -0.67600
Ni1333     Ni  0.41685871  0.91857122  0.72552717     1.26350
O1334       O  0.47244403  0.88298340  0.77724622    -0.67830
O1335       O  0.42542438  0.95948882  0.71613312    -0.80120
C1336       C  0.42491650  0.89873393  0.65396584     0.83320
O1337       O  0.41143610  0.91652365  0.67253759    -0.67300
Ni1338     Ni  0.39053157  0.93546632  0.80423663     1.27450
Ni1339     Ni  0.42707750  0.87768965  0.79298317     1.26060
H1340       H  0.38844942  0.87429438  0.74405162     0.37870
O1341       O  0.94244449  0.77567539  0.95330973    -0.82090
O1342       O  0.03493800  0.75547731  0.57369772    -0.66780
O1343       O  0.99937779  0.75457708  0.98194491    -1.13380
C1344       C  0.43987613  0.67400101  0.03084621     1.04800
O1345       O  0.03496487  0.70840634  0.59233453    -0.79980
O1346       O  0.03072455  0.69021015  0.53352093    -0.67570
Ni1347     Ni  0.98804479  0.78871082  0.95095177     1.34870
C1348       C  0.02385998  0.68752112  0.50134378     0.83540
O1349       O  0.04624121  0.78628848  0.50817919    -0.80520
O1350       O  0.03298868  0.80432080  0.94965171    -0.90800
C1351       C  0.04533723  0.73347354  0.59420983     0.83110
O1352       O  0.47524596  0.80972305  0.98812747    -0.69000
O1353       O  0.46573909  0.66810937  0.54984717    -0.88290
C1354       C  0.46871513  0.80379409  0.02290291     0.83940
C1355       C  0.05099616  0.80395154  0.47765017     1.05510
H1356       H  0.46751152  0.73300388  0.56369699     0.37310
O1357       O  0.48399057  0.72658944  0.54724973    -1.10950
O1358       O  0.99711286  0.69749903  0.98621642    -0.67600
Ni1359     Ni  0.46620471  0.72661657  0.00017998     1.26350
O1360       O  0.48244272  0.78303370  0.54327868    -0.67830
O1361       O  0.43277109  0.69933210  0.01862862    -0.80120
C1362       C  0.93443815  0.75358620  0.94050065     0.83320
O1363       O  0.94695940  0.72996551  0.95394172    -0.67300
Ni1364     Ni  0.49911658  0.69090265  0.57124467     1.27450
Ni1365     Ni  0.01575294  0.75640427  0.52825236     1.26060
H1366       H  0.01624146  0.74631514  0.96787492     0.37870
O1367       O  0.46223244  0.77201055  0.68323569    -0.82090
O1368       O  0.52658030  0.75835992  0.83531275    -0.66780
O1369       O  0.00605367  0.75607907  0.73518157    -1.13380
C1370       C  0.43785190  0.67618808  0.77825597     1.04800
O1371       O  0.51749316  0.71401483  0.85501083    -0.79980
O1372       O  0.02527243  0.68533894  0.79889766    -0.67570
Ni1373     Ni  0.99813166  0.79035904  0.70044974     1.34870
C1374       C  0.02496891  0.68510613  0.76411533     0.83540
O1375       O  0.05023385  0.78719218  0.77027883    -0.80520
O1376       O  0.03509383  0.81067910  0.71474885    -0.90800
C1377       C  0.51082267  0.73943403  0.85750913     0.83110
O1378       O  0.46793253  0.80418223  0.73350640    -0.69000
O1379       O  0.45881598  0.67032620  0.80384605    -0.88290
C1380       C  0.46442464  0.80281933  0.76862012     0.83940
C1381       C  0.05444211  0.80692145  0.74174519     1.05510
H1382       H  0.46052306  0.73790347  0.80560184     0.37310
O1383       O  0.48014226  0.72966852  0.79651914    -1.10950
O1384       O  0.00256628  0.69779895  0.74349541    -0.67600
Ni1385     Ni  0.47014151  0.72769664  0.74755509     1.26350
O1386       O  0.48303089  0.78784488  0.79140223    -0.67830
O1387       O  0.43477824  0.70113199  0.76086801    -0.80120
C1388       C  0.47011278  0.74821035  0.67592790     0.83320
O1389       O  0.45800127  0.72728979  0.69760100    -0.67300
Ni1390     Ni  0.48815948  0.69373677  0.82876222     1.27450
Ni1391     Ni  0.01564329  0.75882195  0.78464699     1.26060
H1392       H  0.02537780  0.74740955  0.72598848     0.37870
C1393       C  0.47735267  0.74657621  0.86928446    -0.07320
C1394       C  0.95234209  0.72501301  0.87603867    -0.18450
C1395       C  0.92098234  0.73158613  0.88912245     0.09880
C1396       C  0.91933088  0.75685587  0.90360308    -0.07250
C1397       C  0.43504041  0.77994708  0.88051367    -0.18480
C1398       C  0.46781234  0.77527212  0.86979224     0.09910
S1399       S  0.89047804  0.70375730  0.90230454    -0.33450
S1400       S  0.49618986  0.80524236  0.86505075    -0.33450
H1401       H  0.52165501  0.78964793  0.88361133     0.27920
H1402       H  0.86789229  0.72100723  0.91802291     0.27910
H1403       H  0.95722826  0.70334570  0.87297770     0.18510
H1404       H  0.42810792  0.80124297  0.88381549     0.18510
C1405       C  0.06272267  0.73715817  0.62843262    -0.07320
C1406       C  0.55143909  0.71534846  0.65708978    -0.18450
C1407       C  0.51746741  0.71696205  0.66571905     0.09880
C1408       C  0.50365425  0.74462174  0.66155657    -0.07250
C1409       C  0.02483168  0.76865138  0.64951587    -0.18480
C1410       C  0.05714175  0.76425063  0.63694377     0.09910
S1411       S  0.49224358  0.68537384  0.66534422    -0.33450
S1412       S  0.08318662  0.79415653  0.61711607    -0.33450
H1413       H  0.10816728  0.77752991  0.60430141     0.27920
H1414       H  0.46806669  0.69968771  0.64287765     0.27910
H1415       H  0.56182156  0.69455421  0.65726675     0.18510
H1416       H  0.01616905  0.79017517  0.64720210     0.18510
C1417       C  0.23957325  0.53858940  0.82570642    -0.07320
C1418       C  0.22352271  0.04880299  0.85585656    -0.18450
C1419       C  0.24405138  0.05618454  0.88324334     0.09880
C1420       C  0.27654959  0.04548869  0.88351013    -0.07250
C1421       C  0.29194565  0.05044117  0.84767620    -0.18480
C1422       C  0.27209167  0.54980316  0.81743368     0.09910
S1423       S  0.23075270  0.07922637  0.91482921    -0.33450
S1424       S  0.28472087  0.56853437  0.77184836    -0.33450
H1425       H  0.25307722  0.56807952  0.75755573     0.27920
H1426       H  0.19956004  0.08430120  0.89962111     0.27910
H1427       H  0.19691575  0.04972215  0.85861820     0.18510
H1428       H  0.31808004  0.05537065  0.84365485     0.18510
C1429       C  0.27506365  0.04648856  0.63208472    -0.07320
C1430       C  0.24187848  0.05532266  0.63334939    -0.18450
C1431       C  0.22109622  0.04640414  0.60714329     0.09880
C1432       C  0.23639414  0.53509730  0.57738403    -0.07250
C1433       C  0.26834072  0.54646576  0.56645470    -0.18480
C1434       C  0.28856767  0.55214291  0.59489545     0.09910
S1435       S  0.17702160  0.04568616  0.61448080    -0.33450
S1436       S  0.32791456  0.56948471  0.58409887    -0.33450
H1437       H  0.33432678  0.57073988  0.62159809     0.27920
H1438       H  0.17064240  0.03305503  0.58332045     0.27910
H1439       H  0.23126990  0.06173139  0.65830950     0.18510
H1440       H  0.27851033  0.54673122  0.53846717     0.18510
O1441       O  0.75120293  0.50017678  0.40530699    -0.82090
O1442       O  0.71066473  0.99309724  0.06396123    -0.66780
O1443       O  0.74256559  0.01505587  0.46718239    -1.13380
C1444       C  0.81609731  0.43700770  0.50513428     1.04800
O1445       O  0.76054166  0.99063128  0.08451806    -0.79980
O1446       O  0.81675226  0.98654612  0.04607526    -0.67570
Ni1447     Ni  0.71484451  0.01666449  0.42687818     1.34870
C1448       C  0.82227614  0.00823559  0.02051898     0.83540
O1449       O  0.69350645  0.03393760  0.00958274    -0.80520
O1450       O  0.67835297  0.03440329  0.45065163    -0.90800
C1451       C  0.73377540  0.00397209  0.07906058     0.83110
O1452       O  0.69599972  0.47974151  0.44141516    -0.69000
O1453       O  0.79830567  0.43308778  0.03553075    -0.88290
C1454       C  0.68124904  0.46960587  0.47232256     0.83940
C1455       C  0.67443843  0.04186609  0.98287211     1.05510
H1456       H  0.74242489  0.45572242  0.01196292     0.37310
O1457       O  0.75409481  0.47254963  0.01610131    -1.10950
O1458       O  0.80441208  0.01361684  0.49249224    -0.67600
Ni1459     Ni  0.77811941  0.48756983  0.47108569     1.26350
O1460       O  0.68808158  0.47816320  0.00263332    -0.67830
O1461       O  0.81241512  0.45833749  0.47834531    -0.80120
C1462       C  0.77756910  0.51506530  0.40206483     0.83320
O1463       O  0.79948042  0.50626182  0.42466418    -0.67300
Ni1464     Ni  0.77844865  0.46164465  0.05964974     1.27450
Ni1465     Ni  0.72336702  0.00307336  0.01418917     1.26060
H1466       H  0.75191156  0.03376556  0.46684199     0.37870
O1467       O  0.75305511  0.50007280  0.15475016    -0.82090
O1468       O  0.71346111  0.99626200  0.31262151    -0.66780
O1469       O  0.74452981  0.01676162  0.21528391    -1.13380
C1470       C  0.81808151  0.43884145  0.25406192     1.04800
O1471       O  0.76362637  0.99361375  0.33227334    -0.79980
O1472       O  0.81915439  0.98769705  0.29414769    -0.67570
Ni1473     Ni  0.71663442  0.01658209  0.17570552     1.34870
C1474       C  0.82463527  0.00949292  0.26890850     0.83540
O1475       O  0.69602597  0.03618472  0.25719892    -0.80520
O1476       O  0.68005111  0.03439130  0.19912472    -0.90800
C1477       C  0.73691430  0.00715777  0.32720291     0.83110
O1478       O  0.69916076  0.47917963  0.19217433    -0.69000
O1479       O  0.79993518  0.43483568  0.28425589    -0.88290
C1480       C  0.68371118  0.47017913  0.22291667     0.83940
C1481       C  0.67657754  0.04307335  0.23056781     1.05510
H1482       H  0.74450029  0.45768240  0.26082800     0.37310
O1483       O  0.75626361  0.47450833  0.26480290    -1.10950
O1484       O  0.80657088  0.01541809  0.24116124    -0.67600
Ni1485     Ni  0.78016996  0.48930140  0.21956517     1.26350
O1486       O  0.68996933  0.48000359  0.25241259    -0.67830
O1487       O  0.81452323  0.46012507  0.22712505    -0.80120
C1488       C  0.77852320  0.51605887  0.15048315     0.83320
O1489       O  0.80111068  0.50825528  0.17272136    -0.67300
Ni1490     Ni  0.78054122  0.46374101  0.30829680     1.27450
Ni1491     Ni  0.72568182  0.00525100  0.26251485     1.26060
H1492       H  0.75348940  0.03574248  0.21383285     0.37870
O1493       O  0.89879702  0.04894292  0.10318474    -0.82090
O1494       O  0.89728926  0.06102234  0.42493767    -0.66780
O1495       O  0.92283556  0.05590115  0.02657113    -1.13380
C1496       C  0.92219047  0.15150618  0.51506274     1.04800
O1497       O  0.91120863  0.10614846  0.40257182    -0.79980
O1498       O  0.95681279  0.10694846  0.45222092    -0.67570
Ni1499     Ni  0.91096208  0.02547476  0.06555441     1.34870
C1500       C  0.97239332  0.10434112  0.48200432     0.83540
O1501       O  0.92258216  0.02058596  0.47210557    -0.80520
O1502       O  0.92150790  0.99904753  0.03249994    -0.90800
C1503       C  0.90519523  0.08083827  0.39761226     0.83110
O1504       O  0.86626982  0.02190481  0.05331023    -0.69000
O1505       O  0.92777053  0.15045526  0.48049316    -0.88290
C1506       C  0.85235640  0.02581535  0.52203994     0.83940
C1507       C  0.92076776  0.99863907  0.49725182     1.05510
H1508       H  0.87264506  0.09776896  0.48272423     0.37310
O1509       O  0.89635295  0.09600406  0.48199550    -1.10950
O1510       O  0.95836182  0.10317067  0.01451370    -0.67600
Ni1511     Ni  0.91290357  0.09364471  0.03199482     1.26350
O1512       O  0.86483991  0.04134375  0.49202624    -0.67830
O1513       O  0.90543094  0.13227252  0.03624483    -0.80120
C1514       C  0.91090193  0.07250983  0.10908862     0.83320
O1515       O  0.92634398  0.08926051  0.08279008    -0.67300
Ni1516     Ni  0.91663078  0.12569491  0.44489608     1.27450
Ni1517     Ni  0.90888054  0.05783041  0.47659011     1.26060
H1518       H  0.94650801  0.05424312  0.02459724     0.37870
O1519       O  0.89702171  0.05075365  0.35185887    -0.82090
O1520       O  0.89964194  0.06082247  0.17533443    -0.66780
O1521       O  0.92449358  0.05735215  0.27666853    -1.13380
C1522       C  0.92131874  0.15319813  0.26298485     1.04800
O1523       O  0.91426470  0.10552849  0.15183805    -0.79980
O1524       O  0.95923202  0.10885823  0.20214976    -0.67570
Ni1525     Ni  0.91251540  0.02714995  0.31583820     1.34870
C1526       C  0.97420822  0.10641363  0.23238328     0.83540
O1527       O  0.92500283  0.02140441  0.22325504    -0.80520
O1528       O  0.92627517  0.00072504  0.28392578    -0.90800
C1529       C  0.90773960  0.08010281  0.14761151     0.83110
O1530       O  0.86869253  0.02193150  0.30203812    -0.69000
O1531       O  0.92742309  0.15185239  0.22856534    -0.88290
C1532       C  0.85477419  0.02659982  0.27096485     0.83940
C1533       C  0.92492613  0.99985553  0.24892733     1.05510
H1534       H  0.87449861  0.09844514  0.23115421     0.37310
O1535       O  0.89822455  0.09685651  0.23092315    -1.10950
O1536       O  0.95949864  0.10495842  0.26463749    -0.67600
Ni1537     Ni  0.91371508  0.09500087  0.28123915     1.26350
O1538       O  0.86707032  0.04272160  0.24149147    -0.67830
O1539       O  0.90535521  0.13360533  0.28449583    -0.80120
C1540       C  0.90907889  0.07402555  0.35864628     0.83320
O1541       O  0.92537419  0.09086325  0.33295053    -0.67300
Ni1542     Ni  0.91831013  0.12622499  0.19345837     1.27450
Ni1543     Ni  0.91114031  0.05868225  0.22663639     1.26060
H1544       H  0.94821508  0.05598234  0.27514075     0.37870
O1545       O  0.56462952  0.11692691  0.38487720    -0.82090
O1546       O  0.56337264  0.11026014  0.06464724    -0.66780
O1547       O  0.58289351  0.11545837  0.45813330    -1.13380
C1548       C  0.57791645  0.01389904  0.49273234     1.04800
O1549       O  0.60194536  0.07803547  0.07909499    -0.79980
O1550       O  0.63378244  0.05101121  0.02629035    -0.67570
Ni1551     Ni  0.55312603  0.13652970  0.42394820     1.34870
C1552       C  0.64379208  0.05596950  0.99203532     0.83540
O1553       O  0.56764425  0.15469320  0.00498162    -0.80520
O1554       O  0.53641565  0.16103033  0.45549718    -0.90800
C1555       C  0.58152383  0.09570333  0.08896140     0.83110
O1556       O  0.52013698  0.10909237  0.44408575    -0.69000
O1557       O  0.58077228  0.01712787  0.02668147    -0.88290
C1558       C  0.50774006  0.10717696  0.47727506     0.83940
C1559       C  0.54508528  0.16792298  0.98543497     1.05510
H1560       H  0.54795130  0.06723125  0.01615184     0.37310
O1561       O  0.57058093  0.07389324  0.01232908    -1.10950
O1562       O  0.62722567  0.06929587  0.46564045    -0.67600
Ni1563     Ni  0.58039624  0.07455844  0.46042157     1.26350
O1564       O  0.52415384  0.11179030  0.00491028    -0.67830
O1565       O  0.57643678  0.03428606  0.46503433    -0.80120
C1566       C  0.57895392  0.09458483  0.38007952     0.83320
O1567       O  0.58910593  0.07639167  0.40704800    -0.67300
Ni1568     Ni  0.59101116  0.04885393  0.05053641     1.27450
Ni1569     Ni  0.57118478  0.11396470  0.01052399     1.26060
H1570       H  0.60526440  0.12253148  0.45255088     0.37870
O1571       O  0.56804068  0.12296634  0.13592025    -0.82090
O1572       O  0.56321581  0.10449744  0.31741930    -0.66780
O1573       O  0.58579391  0.11596412  0.21167600    -1.13380
C1574       C  0.58021852  0.01498353  0.23856177     1.04800
O1575       O  0.60405138  0.07458147  0.33048557    -0.79980
O1576       O  0.63788065  0.05553729  0.27372286    -0.67570
Ni1577     Ni  0.55749697  0.14000461  0.17910633     1.34870
C1578       C  0.64602887  0.05739948  0.23923359     0.83540
O1579       O  0.57007184  0.15178026  0.26641988    -0.80520
O1580       O  0.54196031  0.16191349  0.21550257    -0.90800
C1581       C  0.58215941  0.09058609  0.34087117     0.83110
O1582       O  0.52267344  0.11326867  0.19534972    -0.69000
O1583       O  0.58846825  0.01765355  0.27119775    -0.88290
C1584       C  0.50978600  0.10902448  0.22853633     0.83940
C1585       C  0.54842896  0.16635861  0.24758249     1.05510
H1586       H  0.55000358  0.06539715  0.26728767     0.37310
O1587       O  0.57244698  0.07246412  0.26262925    -1.10950
O1588       O  0.62744269  0.06761536  0.21278641    -0.67600
Ni1589     Ni  0.58073486  0.07558434  0.21000829     1.26350
O1590       O  0.52605051  0.11060043  0.25742436    -0.67830
O1591       O  0.57424530  0.03558375  0.21222251    -0.80120
C1592       C  0.57913437  0.09958784  0.12923772     0.83320
O1593       O  0.58726403  0.07965727  0.15555052    -0.67300
Ni1594     Ni  0.59581150  0.04751068  0.29839929     1.27450
Ni1595     Ni  0.57301779  0.11165663  0.26468731     1.26060
H1596       H  0.60856989  0.12218875  0.20721648     0.37870
O1597       O  0.58177277  0.37923384  0.08714145    -0.82090
O1598       O  0.57230587  0.39309442  0.40573287    -0.66780
O1599       O  0.59986208  0.38605206  0.00857855    -1.13380
C1600       C  0.58033532  0.48535164  0.98420589     1.04800
O1601       O  0.60786560  0.42873294  0.38768111    -0.79980
O1602       O  0.64105032  0.45220280  0.43796430    -0.67570
Ni1603     Ni  0.57714442  0.35905504  0.04700822     1.34870
C1604       C  0.65154299  0.45161744  0.47052082     0.83540
O1605       O  0.58554936  0.34694899  0.45601532    -0.80520
O1606       O  0.56882029  0.33330964  0.01518337    -0.90800
C1607       C  0.58847827  0.40986543  0.37976133     0.83110
O1608       O  0.53613496  0.37684209  0.03505320    -0.69000
O1609       O  0.58745786  0.48363465  0.45019549    -0.88290
C1610       C  0.52273396  0.37936945  0.00352974     0.83940
C1611       C  0.57156086  0.32887596  0.48215796     1.05510
H1612       H  0.55571993  0.43040081  0.45979077     0.37310
O1613       O  0.57905525  0.42663810  0.46031192    -1.10950
O1614       O  0.63544084  0.43976572  0.00047860    -0.67600
Ni1615     Ni  0.59006784  0.42547147  0.01119191     1.26350
O1616       O  0.53872335  0.38150491  0.47232432    -0.67830
O1617       O  0.57799833  0.46409953  0.01091833    -0.80120
C1618       C  0.59165390  0.40338816  0.09156405     0.83320
O1619       O  0.59945219  0.42305213  0.06388981    -0.67300
Ni1620     Ni  0.59729107  0.45465770  0.42127000     1.27450
Ni1621     Ni  0.58457696  0.38754512  0.45747375     1.26060
H1622       H  0.62336085  0.38303090  0.00900367     0.37870
O1623       O  0.56961670  0.38568316  0.33308564    -0.82090
O1624       O  0.57680700  0.39172786  0.15721272    -0.66780
O1625       O  0.60102971  0.38785296  0.26017109    -1.13380
C1626       C  0.58290412  0.48651537  0.23062570     1.04800
O1627       O  0.61233815  0.42740022  0.13808771    -0.79980
O1628       O  0.64422765  0.45220842  0.18830157    -0.67570
Ni1629     Ni  0.58185397  0.35986486  0.30016515     1.34870
C1630       C  0.65401231  0.45219915  0.22107699     0.83540
O1631       O  0.58736965  0.34713881  0.21202468    -0.80520
O1632       O  0.59320186  0.33101180  0.27212874    -0.90800
C1633       C  0.59340235  0.40795416  0.13090709     0.83110
O1634       O  0.53765304  0.36278912  0.28327165    -0.69000
O1635       O  0.59040700  0.48422557  0.19691403    -0.88290
C1636       C  0.52449281  0.37313594  0.25279780     0.83940
C1637       C  0.58083965  0.32873032  0.24146016     1.05510
H1638       H  0.55866834  0.43143919  0.20823869     0.37310
O1639       O  0.58190768  0.42740228  0.20957952    -1.10950
O1640       O  0.63746460  0.44075862  0.25074858    -0.67600
Ni1641     Ni  0.59180179  0.42704611  0.26068698     1.26350
O1642       O  0.54066109  0.38353559  0.22271225    -0.67830
O1643       O  0.58054179  0.46584486  0.25821601    -0.80120
C1644       C  0.58637499  0.40645457  0.33999157     0.83320
O1645       O  0.60051958  0.42422019  0.31350591    -0.67300
Ni1646     Ni  0.60102543  0.45435454  0.16993611     1.27450
Ni1647     Ni  0.58705014  0.38790448  0.20948297     1.26060
H1648       H  0.62466041  0.38554145  0.26012588     0.37870
O1649       O  0.94178060  0.37611052  0.42038263    -0.82090
O1650       O  0.93692873  0.38513553  0.09380877    -0.66780
O1651       O  0.91088599  0.37738836  0.49350947    -1.13380
C1652       C  0.90854636  0.47225815  0.48805895     1.04800
O1653       O  0.89277122  0.41186506  0.10085836    -0.79980
O1654       O  0.85689066  0.41033578  0.03765365    -0.67570
Ni1655     Ni  0.93143911  0.35153575  0.46668685     1.34870
C1656       C  0.84597619  0.41924399  0.50568472     0.83540
O1657       O  0.94195099  0.33818271  0.05762782    -0.80520
O1658       O  0.91920488  0.32569616  0.51082044    -0.90800
C1659       C  0.91847600  0.39915244  0.11366472     0.83110
O1660       O  0.97487636  0.36238233  0.48068550    -0.69000
O1661       O  0.88350983  0.46210335  0.00779148    -0.88290
C1662       C  0.98727554  0.37663024  0.50352920     0.83940
C1663       C  0.94055430  0.32083862  0.03460474     1.05510
H1664       H  0.94077983  0.42836930  0.03012286     0.37310
O1665       O  0.92046615  0.41810739  0.02804595    -1.10950
O1666       O  0.86588386  0.42201239  0.47695805    -0.67600
Ni1667     Ni  0.91445276  0.41716630  0.47543625     1.26350
O1668       O  0.97072389  0.38658934  0.02824364    -0.67830
O1669       O  0.92166955  0.45834493  0.46422773    -0.80120
C1670       C  0.92387251  0.39554603  0.40439096     0.83320
O1671       O  0.90991642  0.41344889  0.42262741    -0.67300
Ni1672     Ni  0.88766174  0.43591963  0.05320040     1.27450
Ni1673     Ni  0.92650665  0.37850535  0.04430455     1.26060
H1674       H  0.88772379  0.37218995  0.49614190     0.37870
O1675       O  0.94364750  0.37976182  0.16930725    -0.82090
O1676       O  0.93719729  0.38250571  0.34359615    -0.66780
O1677       O  0.91187169  0.37870043  0.24156792    -1.13380
C1678       C  0.91258103  0.47299485  0.24027939     1.04800
O1679       O  0.89372483  0.40996690  0.35053120    -0.79980
O1680       O  0.85849796  0.41165237  0.28697899    -0.67570
Ni1681     Ni  0.93089780  0.35325014  0.21302169     1.34870
C1682       C  0.84816885  0.42131750  0.25490666     0.83540
O1683       O  0.93850776  0.33648563  0.30435889    -0.80520
O1684       O  0.91631584  0.32654222  0.25524681    -0.90800
C1685       C  0.91872624  0.39650528  0.36371031     0.83110
O1686       O  0.97528055  0.35920916  0.22878895    -0.69000
O1687       O  0.88744558  0.46293295  0.25977470    -0.88290
C1688       C  0.98860519  0.37216865  0.25242797     0.83940
C1689       C  0.93690851  0.32036917  0.27976768     1.05510
H1690       H  0.94409311  0.42694450  0.28112000     0.37310
O1691       O  0.92325882  0.41771661  0.27827682    -1.10950
O1692       O  0.86855431  0.42459242  0.22662988    -0.67600
Ni1693     Ni  0.91686514  0.41856595  0.22528600     1.26350
O1694       O  0.97249090  0.38301726  0.27703561    -0.67830
O1695       O  0.92541624  0.45949530  0.21586992    -0.80120
C1696       C  0.92493779  0.39872790  0.15375777     0.83320
O1697       O  0.91143834  0.41651053  0.17231728    -0.67300
Ni1698     Ni  0.89049021  0.43546446  0.30395578     1.27450
Ni1699     Ni  0.92711301  0.37769735  0.29274847     1.26060
H1700       H  0.88851160  0.37425964  0.24380939     0.37870
O1701       O  0.44239674  0.27562152  0.45317330    -0.82090
O1702       O  0.53489729  0.25552488  0.07361349    -0.66780
O1703       O  0.49934985  0.25456970  0.48179286    -1.13380
C1704       C  0.93991838  0.17399451  0.53053496     1.04800
O1705       O  0.53490524  0.20845626  0.09223062    -0.79980
O1706       O  0.53064141  0.19023207  0.03346737    -0.67570
Ni1707     Ni  0.48797870  0.28869785  0.45080563     1.34870
C1708       C  0.52379028  0.18755015  0.00128491     0.83540
O1709       O  0.54620678  0.28634208  0.00812486    -0.80520
O1710       O  0.53289979  0.30435893  0.44949986    -0.90800
C1711       C  0.54533308  0.23351243  0.09407317     0.83110
O1712       O  0.97525169  0.30970071  0.48787771    -0.69000
O1713       O  0.96569796  0.16817317  0.04958593    -0.88290
C1714       C  0.96874599  0.30377069  0.52265714     0.83940
C1715       C  0.55094180  0.30403595  0.97762465     1.05510
H1716       H  0.96748426  0.23306497  0.06342912     0.37310
O1717       O  0.98396787  0.22664850  0.04698903    -1.10950
O1718       O  0.49710091  0.19747646  0.48612873    -0.67600
Ni1719     Ni  0.96624872  0.22660607  0.49990768     1.26350
O1720       O  0.98244522  0.28308690  0.04304843    -0.67830
O1721       O  0.93280956  0.19932865  0.51835208    -0.80120
C1722       C  0.43442680  0.25353211  0.44035040     0.83320
O1723       O  0.44693503  0.22991661  0.45383347    -0.67300
Ni1724     Ni  0.99907891  0.19095712  0.07099083     1.27450
Ni1725     Ni  0.51570541  0.25646492  0.02816975     1.26060
H1726       H  0.51619930  0.24630680  0.46770455     0.37870
O1727       O  0.96248632  0.27203773  0.18302084    -0.82090
O1728       O  0.02674440  0.25844885  0.33515581    -0.66780
O1729       O  0.50630396  0.25617158  0.23514850    -1.13380
C1730       C  0.93803250  0.17628670  0.27808746     1.04800
O1731       O  0.01768937  0.21409604  0.35483633    -0.79980
O1732       O  0.52552115  0.18541765  0.29889190    -0.67570
Ni1733     Ni  0.49835853  0.29043804  0.20040000     1.34870
C1734       C  0.52522214  0.18519025  0.26411153     0.83540
O1735       O  0.55044774  0.28731953  0.27024379    -0.80520
O1736       O  0.53529329  0.31077463  0.21470006    -0.90800
C1737       C  0.01099228  0.23950943  0.35734000     0.83110
O1738       O  0.96811356  0.30421291  0.23329240    -0.69000
O1739       O  0.95899959  0.17040494  0.30367453    -0.88290
C1740       C  0.96458880  0.30285857  0.26840389     0.83940
C1741       C  0.55464107  0.30703767  0.24169444     1.05510
H1742       H  0.96072676  0.23797479  0.30539200     0.37310
O1743       O  0.98035698  0.22974086  0.29633468    -1.10950
O1744       O  0.50281904  0.19788825  0.24349288    -0.67600
Ni1745     Ni  0.97038498  0.22775926  0.24737566     1.26350
O1746       O  0.98320789  0.28791137  0.29119892    -0.67830
O1747       O  0.93500275  0.20122651  0.26068244    -0.80120
C1748       C  0.97038223  0.24823246  0.17574685     0.83320
O1749       O  0.95826694  0.22732169  0.19742780    -0.67300
Ni1750     Ni  0.98835852  0.19381033  0.32859323     1.27450
Ni1751     Ni  0.51587395  0.25893579  0.28461828     1.26060
H1752       H  0.52563125  0.24750157  0.22596289     0.37870
C1753       C  0.97750043  0.24662202  0.36908266    -0.07320
C1754       C  0.45259431  0.22500796  0.37595694    -0.18450
C1755       C  0.42117597  0.23153450  0.38891687     0.09880
C1756       C  0.41941459  0.25679625  0.40340132    -0.07250
C1757       C  0.93512048  0.27995270  0.38024840    -0.18480
C1758       C  0.96791372  0.27530912  0.36957340     0.09910
S1759       S  0.39071655  0.20365633  0.40200273    -0.33450
S1760       S  0.99624566  0.30530909  0.36485858    -0.33450
H1761       H  0.02173513  0.28973987  0.38340321     0.27920
H1762       H  0.36803473  0.22087116  0.41764114     0.27910
H1763       H  0.45754867  0.20334305  0.37294713     0.18510
H1764       H  0.92814832  0.30124087  0.38354204     0.18510
C1765       C  0.56285639  0.23717414  0.12821880    -0.07320
C1766       C  0.05167524  0.21535418  0.15675884    -0.18450
C1767       C  0.01772839  0.21697175  0.16552229     0.09880
C1768       C  0.00392596  0.24463664  0.16139612    -0.07250
C1769       C  0.52508717  0.26868272  0.14946889    -0.18480
C1770       C  0.55735341  0.26426506  0.13677067     0.09910
S1771       S  0.99248018  0.18538506  0.16521811    -0.33450
S1772       S  0.58338433  0.29415740  0.11685257    -0.33450
H1773       H  0.60829499  0.27751854  0.10392443     0.27920
H1774       H  0.96830729  0.19969097  0.14273757     0.27910
H1775       H  0.06204036  0.19455848  0.15688899     0.18510
H1776       H  0.51644850  0.29021147  0.14718527     0.18510
C1777       C  0.73934961  0.03852162  0.32568667    -0.07320
C1778       C  0.72362212  0.54881509  0.35573010    -0.18450
C1779       C  0.74406193  0.55618165  0.38320209     0.09880
C1780       C  0.77655940  0.54548311  0.38357784    -0.07250
C1781       C  0.79205894  0.55044989  0.34780073    -0.18480
C1782       C  0.77186120  0.04975372  0.31739565     0.09910
S1783       S  0.73064986  0.57917890  0.41479533    -0.33450
S1784       S  0.78445173  0.06853941  0.27182768    -0.33450
H1785       H  0.75279262  0.06810046  0.25756952     0.27920
H1786       H  0.69949137  0.58424599  0.39949637     0.27910
H1787       H  0.69700954  0.54971925  0.35840707     0.18510
H1788       H  0.81819390  0.55539924  0.34387858     0.18510
C1789       C  0.77510547  0.54648990  0.13186207    -0.07320
C1790       C  0.74192782  0.55534442  0.13313785    -0.18450
C1791       C  0.72109720  0.54633903  0.10703443     0.09880
C1792       C  0.73636411  0.03521509  0.07738195    -0.07250
C1793       C  0.76829749  0.04661837  0.06646933    -0.18480
C1794       C  0.78849227  0.05231589  0.09492386     0.09910
S1795       S  0.67703201  0.54559853  0.11448649    -0.33450
S1796       S  0.82786272  0.06961409  0.08415244    -0.33450
H1797       H  0.83423660  0.07090148  0.12165213     0.27920
H1798       H  0.67059208  0.53284327  0.08344693     0.27910
H1799       H  0.73136001  0.56180754  0.15808243     0.18510
H1800       H  0.77850795  0.04685034  0.03850467     0.18510
O1801       O  0.75110899  0.50016457  0.90529688    -0.82090
O1802       O  0.71076104  0.99321032  0.56402356    -0.66780
O1803       O  0.74257281  0.01511645  0.96719884    -1.13380
C1804       C  0.81603330  0.43698492  0.00511819     1.04800
O1805       O  0.76067852  0.99071622  0.58447125    -0.79980
O1806       O  0.81680227  0.98654252  0.54600077    -0.67570
Ni1807     Ni  0.71490977  0.01680013  0.92683260     1.34870
C1808       C  0.82229144  0.00822403  0.52042755     0.83540
O1809       O  0.69359763  0.03397611  0.50958085    -0.80520
O1810       O  0.67839160  0.03454196  0.95056819    -0.90800
C1811       C  0.73391246  0.00406740  0.57907941     0.83110
O1812       O  0.69597681  0.47970352  0.94153071    -0.69000
O1813       O  0.79834604  0.43309065  0.53552884    -0.88290
C1814       C  0.68123207  0.46958941  0.97245005     0.83940
C1815       C  0.67447070  0.04181933  0.48290683     1.05510
H1816       H  0.74247072  0.45570386  0.51191085     0.37310
O1817       O  0.75412210  0.47253220  0.51607705    -1.10950
O1818       O  0.80440104  0.01366617  0.99258508    -0.67600
Ni1819     Ni  0.77806458  0.48755561  0.97108141     1.26350
O1820       O  0.68811715  0.47812698  0.50253399    -0.67830
O1821       O  0.81234575  0.45831115  0.97832736    -0.80120
C1822       C  0.77748328  0.51504247  0.90206734     0.83320
O1823       O  0.79940411  0.50621331  0.92463951    -0.67300
Ni1824     Ni  0.77844069  0.46161903  0.55965518     1.27450
Ni1825     Ni  0.72341200  0.00308983  0.51422171     1.26060
H1826       H  0.75190405  0.03382104  0.96693196     0.37870
O1827       O  0.75320190  0.50016469  0.65466251    -0.82090
O1828       O  0.71343088  0.99627448  0.81283360    -0.66780
O1829       O  0.74449881  0.01658287  0.71546216    -1.13380
C1830       C  0.81824591  0.43898354  0.75385743     1.04800
O1831       O  0.76360967  0.99365302  0.83243476    -0.79980
O1832       O  0.81909789  0.98772561  0.79430045    -0.67570
Ni1833     Ni  0.71655798  0.01645467  0.67590406     1.34870
C1834       C  0.82455502  0.00945448  0.76894885     0.83540
O1835       O  0.69609645  0.03616168  0.75735453    -0.80520
O1836       O  0.68007285  0.03437557  0.69930225    -0.90800
C1837       C  0.73688512  0.00718546  0.82738444     0.83110
O1838       O  0.69934753  0.47919431  0.69209968    -0.69000
O1839       O  0.80003107  0.43490243  0.78399901    -0.88290
C1840       C  0.68384598  0.47021556  0.72281431     0.83940
C1841       C  0.67668640  0.04311749  0.73070937     1.05510
H1842       H  0.74466792  0.45776748  0.76061557     0.37310
O1843       O  0.75641617  0.47458678  0.76464017    -1.10950
O1844       O  0.80655565  0.01523148  0.74113502    -0.67600
Ni1845     Ni  0.78032361  0.48945059  0.71943401     1.26350
O1846       O  0.69009771  0.48003686  0.75231503    -0.67830
O1847       O  0.81471504  0.46030467  0.72696228    -0.80120
C1848       C  0.77862918  0.51619931  0.65034780     0.83320
O1849       O  0.80123446  0.50847629  0.67260124    -0.67300
Ni1850     Ni  0.78068264  0.46377138  0.80812433     1.27450
Ni1851     Ni  0.72567521  0.00518006  0.76272558     1.26060
H1852       H  0.75351423  0.03554816  0.71397740     0.37870
O1853       O  0.89894418  0.04879718  0.60325180    -0.82090
O1854       O  0.89706107  0.06121195  0.92504963    -0.66780
O1855       O  0.92287548  0.05576832  0.52657556    -1.13380
C1856       C  0.92209797  0.15163051  0.01515713     1.04800
O1857       O  0.91113494  0.10630505  0.90266277    -0.79980
O1858       O  0.95674363  0.10715041  0.95223923    -0.67570
Ni1859     Ni  0.91084973  0.02535238  0.56553455     1.34870
C1860       C  0.97234103  0.10450879  0.98201023     0.83540
O1861       O  0.92234248  0.02070941  0.97213484    -0.80520
O1862       O  0.92109046  0.99889591  0.53245914    -0.90800
C1863       C  0.90506175  0.08100235  0.89772885     0.83110
O1864       O  0.86611245  0.02211007  0.55330000    -0.69000
O1865       O  0.92764362  0.15060604  0.98057604    -0.88290
C1866       C  0.85236809  0.02579929  0.02213666     0.83940
C1867       C  0.92088731  0.99876885  0.99730778     1.05510
H1868       H  0.87257319  0.09793649  0.98284631     0.37310
O1869       O  0.89627914  0.09615548  0.98207950    -1.10950
O1870       O  0.95839706  0.10302864  0.51449512    -0.67600
Ni1871     Ni  0.91292845  0.09352699  0.53194370     1.26350
O1872       O  0.86470387  0.04152372  0.99219220    -0.67830
O1873       O  0.90546618  0.13217401  0.53613079    -0.80120
C1874       C  0.91099673  0.07238858  0.60911444     0.83320
O1875       O  0.92632553  0.08919160  0.58277135    -0.67300
Ni1876     Ni  0.91653042  0.12585408  0.94497325     1.27450
Ni1877     Ni  0.90874018  0.05797502  0.97665050     1.26060
H1878       H  0.94654909  0.05408912  0.52468735     0.37870
O1879       O  0.89695265  0.05081440  0.85219094    -0.82090
O1880       O  0.90012195  0.06056996  0.67541106    -0.66780
O1881       O  0.92436677  0.05725078  0.77697603    -1.13380
C1882       C  0.92113940  0.15313485  0.76293991     1.04800
O1883       O  0.91410566  0.10541604  0.65188072    -0.79980
O1884       O  0.95909582  0.10866543  0.70224881    -0.67570
Ni1885     Ni  0.91197866  0.02712496  0.81612554     1.34870
C1886       C  0.97406096  0.10620991  0.73249770     0.83540
O1887       O  0.92555439  0.02132248  0.72354077    -0.80520
O1888       O  0.92507206  0.00050844  0.78424959    -0.90800
C1889       C  0.90789107  0.07993813  0.64766717     0.83110
O1890       O  0.86804782  0.02256821  0.80235735    -0.69000
O1891       O  0.92734199  0.15172077  0.72856848    -0.88290
C1892       C  0.85458370  0.02668432  0.77100836     0.83940
C1893       C  0.92456686  0.99972439  0.74917092     1.05510
H1894       H  0.87438814  0.09815017  0.73116158     0.37310
O1895       O  0.89812318  0.09665961  0.73098959    -1.10950
O1896       O  0.95933858  0.10485204  0.76473320    -0.67600
Ni1897     Ni  0.91353644  0.09493830  0.78133061     1.26350
O1898       O  0.86727450  0.04231735  0.74135301    -0.67830
O1899       O  0.90511753  0.13357069  0.78442854    -0.80120
C1900       C  0.90894549  0.07414521  0.85881072     0.83320
O1901       O  0.92516379  0.09096735  0.83303522    -0.67300
Ni1902     Ni  0.91819041  0.12606768  0.69352089     1.27450
Ni1903     Ni  0.91131691  0.05852160  0.72681455     1.26060
H1904       H  0.94808913  0.05583148  0.77569274     0.37870
O1905       O  0.56457449  0.11700601  0.88487108    -0.82090
O1906       O  0.56339231  0.11014230  0.56466826    -0.66780
O1907       O  0.58285022  0.11552133  0.95812469    -1.13380
C1908       C  0.57779869  0.01396836  0.99279803     1.04800
O1909       O  0.60195728  0.07791121  0.57911343    -0.79980
O1910       O  0.63377314  0.05086633  0.52631071    -0.67570
Ni1911     Ni  0.55308127  0.13660940  0.92394316     1.34870
C1912       C  0.64383362  0.05591215  0.49207512     0.83540
O1913       O  0.56766258  0.15460098  0.50501817    -0.80520
O1914       O  0.53637528  0.16111709  0.95548457    -0.90800
C1915       C  0.58154525  0.09558482  0.58898468     0.83110
O1916       O  0.52007605  0.10918765  0.94409516    -0.69000
O1917       O  0.58073324  0.01704124  0.52664585    -0.88290
C1918       C  0.50769108  0.10728740  0.97728950     0.83940
C1919       C  0.54512671  0.16784288  0.48544487     1.05510
H1920       H  0.54799213  0.06714441  0.51607851     0.37310
O1921       O  0.57062272  0.07380844  0.51230037    -1.10950
O1922       O  0.62713152  0.06928173  0.96559454    -0.67600
Ni1923     Ni  0.58029256  0.07461753  0.96044719     1.26350
O1924       O  0.52418321  0.11169570  0.50490353    -0.67830
O1925       O  0.57623168  0.03434715  0.96509977    -0.80120
C1926       C  0.57885670  0.09464112  0.88009417     0.83320
O1927       O  0.58895294  0.07642731  0.90707363    -0.67300
Ni1928     Ni  0.59099612  0.04874819  0.55052889     1.27450
Ni1929     Ni  0.57121220  0.11387467  0.51053474     1.26060
H1930       H  0.60522838  0.12257206  0.95252978     0.37870
O1931       O  0.56779317  0.12275812  0.63596437    -0.82090
O1932       O  0.56310030  0.10445574  0.81743404    -0.66780
O1933       O  0.58565891  0.11595403  0.71168061    -1.13380
C1934       C  0.58096276  0.01495781  0.73869642     1.04800
O1935       O  0.60412633  0.07475794  0.83051238    -0.79980
O1936       O  0.63811423  0.05582423  0.77380668    -0.67570
Ni1937     Ni  0.55719588  0.13982033  0.67911883     1.34870
C1938       C  0.64625401  0.05760698  0.73932853     0.83540
O1939       O  0.56977411  0.15172637  0.76638595    -0.80520
O1940       O  0.54159054  0.16173257  0.71549485    -0.90800
C1941       C  0.58210592  0.09064206  0.84089444     0.83110
O1942       O  0.52251817  0.11296128  0.69545108    -0.69000
O1943       O  0.58898324  0.01767155  0.77138602    -0.88290
C1944       C  0.50963682  0.10876966  0.72863368     0.83940
C1945       C  0.54809470  0.16624573  0.74753971     1.05510
H1946       H  0.55017766  0.06525033  0.76730141     0.37310
O1947       O  0.57258561  0.07241256  0.76266820    -1.10950
O1948       O  0.62772007  0.06786872  0.71285693    -0.67600
Ni1949     Ni  0.58096501  0.07554605  0.71004490     1.26350
O1950       O  0.52592106  0.11038642  0.75749489    -0.67830
O1951       O  0.57493739  0.03549919  0.71229653    -0.80120
C1952       C  0.57915306  0.09947124  0.62927012     0.83320
O1953       O  0.58753347  0.07963470  0.65557760    -0.67300
Ni1954     Ni  0.59608532  0.04761011  0.79849819     1.27450
Ni1955     Ni  0.57289944  0.11161406  0.76469641     1.26060
H1956       H  0.60838561  0.12231739  0.70720424     0.37870
O1957       O  0.58179872  0.37926262  0.58713981    -0.82090
O1958       O  0.57236842  0.39313283  0.90567893    -0.66780
O1959       O  0.59989554  0.38602033  0.50858954    -1.13380
C1960       C  0.58024337  0.48534800  0.48421578     1.04800
O1961       O  0.60798411  0.42873846  0.88763600    -0.79980
O1962       O  0.64123852  0.45186909  0.93810890    -0.67570
Ni1963     Ni  0.57720087  0.35903559  0.54704666     1.34870
C1964       C  0.65157831  0.45152920  0.97067737     0.83540
O1965       O  0.58554909  0.34698497  0.95597695    -0.80520
O1966       O  0.56890311  0.33325384  0.51525232    -0.90800
C1967       C  0.58859451  0.40987314  0.87971771     0.83110
O1968       O  0.53616657  0.37677562  0.53509907    -0.69000
O1969       O  0.58783516  0.48363888  0.95024797    -0.88290
C1970       C  0.52276047  0.37930046  0.50358068     0.83940
C1971       C  0.57151977  0.32892378  0.98209763     1.05510
H1972       H  0.55575370  0.43047299  0.95961364     0.37310
O1973       O  0.57907794  0.42667350  0.96024183    -1.10950
O1974       O  0.63553946  0.43968046  0.50033249    -0.67600
Ni1975     Ni  0.59016704  0.42545236  0.51121367     1.26350
O1976       O  0.53870854  0.38156460  0.97227375    -0.67830
O1977       O  0.57817945  0.46410619  0.51096334    -0.80120
C1978       C  0.59177887  0.40338880  0.59156776     0.83320
O1979       O  0.59967006  0.42302666  0.56389072    -0.67300
Ni1980     Ni  0.59753397  0.45465111  0.92128255     1.27450
Ni1981     Ni  0.58458414  0.38757930  0.95743946     1.26060
H1982       H  0.62339150  0.38298021  0.50898741     0.37870
O1983       O  0.56972170  0.38570071  0.83304314    -0.82090
O1984       O  0.57684750  0.39171742  0.65719418    -0.66780
O1985       O  0.60107002  0.38777286  0.76015078    -1.13380
C1986       C  0.58285688  0.48651776  0.73055617     1.04800
O1987       O  0.61243745  0.42735945  0.63818568    -0.79980
O1988       O  0.64406220  0.45277575  0.68812135    -0.67570
Ni1989     Ni  0.58185519  0.35982777  0.80015549     1.34870
C1990       C  0.65406207  0.45234349  0.72090565     0.83540
O1991       O  0.58728759  0.34707398  0.71201850    -0.80520
O1992       O  0.59306484  0.33092022  0.77213871    -0.90800
C1993       C  0.59349871  0.40793887  0.63092721     0.83110
O1994       O  0.53765867  0.36281149  0.78329207    -0.69000
O1995       O  0.58989444  0.48422265  0.69674034    -0.88290
C1996       C  0.52450434  0.37312960  0.75280698     0.83940
C1997       C  0.58071714  0.32866117  0.74144837     1.05510
H1998       H  0.55874030  0.43137056  0.70841216     0.37310
O1999       O  0.58199102  0.42735612  0.70961929    -1.10950
O2000       O  0.63770705  0.44057920  0.75057083    -0.67600
Ni2001     Ni  0.59200172  0.42700797  0.76066357     1.26350
O2002       O  0.54067197  0.38351027  0.72271116    -0.67830
O2003       O  0.58092305  0.46586203  0.75819698    -0.80120
C2004       C  0.58654377  0.40643769  0.83995130     0.83320
O2005       O  0.60078063  0.42415471  0.81347163    -0.67300
Ni2006     Ni  0.60082103  0.45435870  0.66986820     1.27450
Ni2007     Ni  0.58706494  0.38785001  0.70947977     1.26060
H2008       H  0.62469178  0.38540068  0.76009282     0.37870
O2009       O  0.94178193  0.37612559  0.92035810    -0.82090
O2010       O  0.93701233  0.38509739  0.59384922    -0.66780
O2011       O  0.91084999  0.37740052  0.99346335    -1.13380
C2012       C  0.90844199  0.47224997  0.98792265     1.04800
O2013       O  0.89283255  0.41178644  0.60091682    -0.79980
O2014       O  0.85693846  0.41035533  0.53770308    -0.67570
Ni2015     Ni  0.93142716  0.35155598  0.96665570     1.34870
C2016       C  0.84590288  0.41920785  0.00564477     0.83540
O2017       O  0.94198594  0.33813698  0.55765916    -0.80520
O2018       O  0.91917437  0.32573352  0.01079479    -0.90800
C2019       C  0.91857888  0.39913414  0.61369814     0.83110
O2020       O  0.97485723  0.36242772  0.98065729    -0.69000
O2021       O  0.88361423  0.46211842  0.50793491    -0.88290
C2022       C  0.98724940  0.37668585  0.00349311     0.83940
C2023       C  0.94058188  0.32079180  0.53463589     1.05510
H2024       H  0.94085090  0.42832748  0.53020735     0.37310
O2025       O  0.92053195  0.41807598  0.52812015    -1.10950
O2026       O  0.86579690  0.42197346  0.97690293    -0.67600
Ni2027     Ni  0.91438011  0.41716718  0.97536387     1.26350
O2028       O  0.97076140  0.38654001  0.52827951    -0.67830
O2029       O  0.92157160  0.45834038  0.96409910    -0.80120
C2030       C  0.92385212  0.39553568  0.90435080     0.83320
O2031       O  0.90984775  0.41342264  0.92257121    -0.67300
Ni2032     Ni  0.88774393  0.43588803  0.55329893     1.27450
Ni2033     Ni  0.92655448  0.37846881  0.54435453     1.26060
H2034       H  0.88769173  0.37218790  0.99609589     0.37870
O2035       O  0.94380065  0.37981947  0.66932523    -0.82090
O2036       O  0.93724199  0.38249822  0.84357895    -0.66780
O2037       O  0.91195646  0.37878107  0.74152404    -1.13380
C2038       C  0.91289710  0.47307557  0.74032039     1.04800
O2039       O  0.89373895  0.40991955  0.85046228    -0.79980
O2040       O  0.85862273  0.41181236  0.78684913    -0.67570
Ni2041     Ni  0.93095404  0.35331094  0.71299109     1.34870
C2042       C  0.84836303  0.42151024  0.75475786     0.83540
O2043       O  0.93848982  0.33650504  0.80431612    -0.80520
O2044       O  0.91627976  0.32661947  0.75518770    -0.90800
C2045       C  0.91874192  0.39648502  0.86367381     0.83110
O2046       O  0.97533326  0.35921270  0.72880325    -0.69000
O2047       O  0.88774399  0.46308087  0.75985080    -0.88290
C2048       C  0.98866004  0.37217914  0.75243196     0.83940
C2049       C  0.93685398  0.32040185  0.77971598     1.05510
H2050       H  0.94424537  0.42695267  0.78116067     0.37310
O2051       O  0.92340099  0.41775497  0.77827844    -1.10950
O2052       O  0.86878933  0.42479025  0.72652861    -0.67600
Ni2053     Ni  0.91705875  0.41863996  0.72527440     1.26350
O2054       O  0.97255168  0.38301903  0.77704672    -0.67830
O2055       O  0.92569033  0.45954303  0.71591728    -0.80120
C2056       C  0.92510158  0.39878155  0.65375842     0.83320
O2057       O  0.91165373  0.41660684  0.67228942    -0.67300
Ni2058     Ni  0.89065248  0.43551535  0.80395600     1.27450
Ni2059     Ni  0.92717099  0.37773049  0.79272231     1.26060
H2060       H  0.88858610  0.37438335  0.74373346     0.37870
O2061       O  0.44235142  0.27568260  0.95314538    -0.82090
O2062       O  0.53488138  0.25544104  0.57367594    -0.66780
O2063       O  0.49931457  0.25462560  0.98175947    -1.13380
C2064       C  0.93982041  0.17411799  0.03061348     1.04800
O2065       O  0.53491020  0.20836604  0.59227308    -0.79980
O2066       O  0.53072674  0.19023558  0.53341544    -0.67570
Ni2067     Ni  0.48793865  0.28874977  0.95076348     1.34870
C2068       C  0.52386029  0.18750867  0.50125477     0.83540
O2069       O  0.54620879  0.28630125  0.50820345    -0.80520
O2070       O  0.53286050  0.30441081  0.94943779    -0.90800
C2071       C  0.54529329  0.23342824  0.59415964     0.83110
O2072       O  0.97519851  0.30975779  0.98782307    -0.69000
O2073       O  0.96581312  0.16805543  0.54948510    -0.88290
C2074       C  0.96872467  0.30383914  0.02260962     0.83940
C2075       C  0.55096476  0.30399032  0.47769911     1.05510
H2076       H  0.96752089  0.23293510  0.56345935     0.37310
O2077       O  0.98401261  0.22654148  0.54700842    -1.10950
O2078       O  0.49703778  0.19753293  0.98615517    -0.67600
Ni2079     Ni  0.96618955  0.22669644  0.99989957     1.26350
O2080       O  0.98243535  0.28299566  0.54309510    -0.67830
O2081       O  0.93273746  0.19944871  0.01838171    -0.80120
C2082       C  0.43436249  0.25358311  0.94035583     0.83320
O2083       O  0.44687675  0.22997190  0.95384484    -0.67300
Ni2084     Ni  0.99916210  0.19084634  0.57095198     1.27450
Ni2085     Ni  0.51571562  0.25639870  0.52821498     1.26060
H2086       H  0.51615059  0.24635103  0.96766665     0.37870
O2087       O  0.96232055  0.27206957  0.68295466    -0.82090
O2088       O  0.02661471  0.25839519  0.83507158    -0.66780
O2089       O  0.50608725  0.25611924  0.73510025    -1.13380
C2090       C  0.93781237  0.17625587  0.77803026     1.04800
O2091       O  0.01751707  0.21404980  0.85474489    -0.79980
O2092       O  0.52524727  0.18535276  0.79882182    -0.67570
Ni2093     Ni  0.49819277  0.29040068  0.70035320     1.34870
C2094       C  0.52492799  0.18511252  0.76404429     0.83540
O2095       O  0.55028268  0.28724509  0.77019321    -0.80520
O2096       O  0.53516725  0.31071207  0.71464320    -0.90800
C2097       C  0.01085143  0.23946672  0.85725825     0.83110
O2098       O  0.96802513  0.30423496  0.73322980    -0.69000
O2099       O  0.95876320  0.17038971  0.80363419    -0.88290
C2100       C  0.96449927  0.30286616  0.76834376     0.83940
C2101       C  0.55450446  0.30696791  0.74164973     1.05510
H2102       H  0.96055497  0.23796396  0.80533793     0.37310
O2103       O  0.98016946  0.22971713  0.79626338    -1.10950
O2104       O  0.50254380  0.19783052  0.74342132    -0.67600
Ni2105     Ni  0.97016539  0.22774878  0.74730071     1.26350
O2106       O  0.98309048  0.28788680  0.79113656    -0.67830
O2107       O  0.93477975  0.20119658  0.76060564    -0.80120
C2108       C  0.97017053  0.24825556  0.67567069     0.83320
O2109       O  0.95802044  0.22735364  0.69734581    -0.67300
Ni2110     Ni  0.98814746  0.19378539  0.82852412     1.27450
Ni2111     Ni  0.51568135  0.25887025  0.78456419     1.26060
H2112       H  0.52540518  0.24743619  0.72591560     0.37870
C2113       C  0.97737756  0.24660676  0.86902479    -0.07320
C2114       C  0.45239783  0.22500017  0.87595460    -0.18450
C2115       C  0.42100996  0.23155394  0.88897464     0.09880
C2116       C  0.41930184  0.25682893  0.90343423    -0.07250
C2117       C  0.93504761  0.27997668  0.88020294    -0.18480
C2118       C  0.96782782  0.27530331  0.86951115     0.09910
S2119       S  0.39052399  0.20370523  0.90211864    -0.33450
S2120       S  0.99619838  0.30527777  0.86478286    -0.33450
H2121       H  0.02166357  0.28968683  0.88334769     0.27920
H2122       H  0.36788827  0.22094732  0.91777666     0.27910
H2123       H  0.45731763  0.20333077  0.87293582     0.18510
H2124       H  0.92810565  0.30127399  0.88348728     0.18510
C2125       C  0.56270833  0.23709487  0.62837201    -0.07320
C2126       C  0.05143685  0.21528160  0.65688032    -0.18450
C2127       C  0.01747012  0.21694170  0.66549964     0.09880
C2128       C  0.00370894  0.24462185  0.66132832    -0.07250
C2129       C  0.52488155  0.26863538  0.64945804    -0.18480
C2130       C  0.55718014  0.26419447  0.63688525     0.09910
S2131       S  0.99219152  0.18538614  0.66511800    -0.33450
S2132       S  0.58327452  0.29406826  0.61706172    -0.33450
H2133       H  0.60822653  0.27740921  0.60425753     0.27920
H2134       H  0.96804785  0.19973187  0.64263136     0.27910
H2135       H  0.06178181  0.19447248  0.65706625     0.18510
H2136       H  0.51625456  0.29017025  0.64713660     0.18510
C2137       C  0.73930770  0.03855563  0.82583182    -0.07320
C2138       C  0.72366833  0.54881993  0.85552884    -0.18450
C2139       C  0.74398973  0.55615782  0.88311840     0.09880
C2140       C  0.77649425  0.54546916  0.88362475    -0.07250
C2141       C  0.79212305  0.55046621  0.84791825    -0.18480
C2142       C  0.77180012  0.04979301  0.81741847     0.09910
S2143       S  0.73043994  0.57913594  0.91467521    -0.33450
S2144       S  0.78431136  0.06844164  0.77175172    -0.33450
H2145       H  0.75260436  0.06802846  0.75761210     0.27920
H2146       H  0.69931526  0.58416844  0.89927666     0.27910
H2147       H  0.69704954  0.54972505  0.85807639     0.18510
H2148       H  0.81826162  0.55542857  0.84412114     0.18510
C2149       C  0.77512661  0.54659530  0.63162555    -0.07320
C2150       C  0.74192884  0.55539751  0.63295977    -0.18450
C2151       C  0.72106034  0.54630624  0.60695094     0.09880
C2152       C  0.73649530  0.03529855  0.57751513    -0.07250
C2153       C  0.76846684  0.04668925  0.56676394    -0.18480
C2154       C  0.78859691  0.05221947  0.59536191     0.09910
S2155       S  0.67700350  0.54549438  0.61451747    -0.33450
S2156       S  0.82799525  0.06950834  0.58485393    -0.33450
H2157       H  0.83430509  0.07055327  0.62243809     0.27920
H2158       H  0.67052310  0.53270685  0.58351424     0.27910
H2159       H  0.73139110  0.56187347  0.65791041     0.18510
H2160       H  0.77876330  0.04698682  0.53881726     0.18510
O2161       O  0.75103620  0.00001455  0.40529402    -0.82090
O2162       O  0.71070198  0.49312015  0.06398230    -0.66780
O2163       O  0.74262147  0.51512683  0.46720430    -1.13380
C2164       C  0.81603894  0.93694918  0.50522463     1.04800
O2165       O  0.76058073  0.49057252  0.08453611    -0.79980
O2166       O  0.81676523  0.48647442  0.04606915    -0.67570
Ni2167     Ni  0.71498137  0.51684697  0.42681036     1.34870
C2168       C  0.82230044  0.50817469  0.02053321     0.83540
O2169       O  0.69356381  0.53396915  0.00961681    -0.80520
O2170       O  0.67846468  0.53459554  0.45053729    -0.90800
C2171       C  0.73383935  0.50395285  0.07909112     0.83110
O2172       O  0.69601824  0.97952845  0.44171028    -0.69000
O2173       O  0.79835004  0.93313804  0.03559385    -0.88290
C2174       C  0.68127140  0.96947152  0.47264710     0.83940
C2175       C  0.67448253  0.54189157  0.98292032     1.05510
H2176       H  0.74245630  0.95571813  0.01198102     0.37310
O2177       O  0.75410662  0.97255758  0.01610998    -1.10950
O2178       O  0.80445422  0.51363021  0.49264928    -0.67600
Ni2179     Ni  0.77804383  0.98748698  0.47109296     1.26350
O2180       O  0.68809983  0.97813221  0.00260998    -0.67830
O2181       O  0.81233422  0.95824371  0.47838877    -0.80120
C2182       C  0.77739896  0.01490663  0.40203675     0.83320
O2183       O  0.79934090  0.00609014  0.42459131    -0.67300
Ni2184     Ni  0.77845376  0.96169705  0.05967308     1.27450
Ni2185     Ni  0.72338662  0.50308645  0.01420302     1.26060
H2186       H  0.75195662  0.53382604  0.46696775     0.37870
O2187       O  0.75320434  0.00028370  0.15459449    -0.82090
O2188       O  0.71346435  0.49628145  0.31280400    -0.66780
O2189       O  0.74456308  0.51660086  0.21544036    -1.13380
C2190       C  0.81818656  0.93912717  0.25381672     1.04800
O2191       O  0.76362469  0.49360502  0.33245071    -0.79980
O2192       O  0.81910657  0.48769456  0.29432315    -0.67570
Ni2193     Ni  0.71661259  0.51651407  0.17588005     1.34870
C2194       C  0.82458516  0.50940879  0.26895673     0.83540
O2195       O  0.69616431  0.53620294  0.25734651    -0.80520
O2196       O  0.68015547  0.53447777  0.19927480    -0.90800
C2197       C  0.73692202  0.50716653  0.32737820     0.83110
O2198       O  0.69933819  0.97917848  0.19194995    -0.69000
O2199       O  0.79987212  0.93496465  0.28387873    -0.88290
C2200       C  0.68366316  0.97029887  0.22258086     0.83940
C2201       C  0.67676651  0.54319645  0.23069708     1.05510
H2202       H  0.74457477  0.95781476  0.26046054     0.37310
O2203       O  0.75629260  0.97463279  0.26454316    -1.10950
O2204       O  0.80664210  0.51516412  0.24108994    -0.67600
Ni2205     Ni  0.78024170  0.98957276  0.21939995     1.26350
O2206       O  0.68995047  0.98003794  0.25213696    -0.67830
O2207       O  0.81469026  0.96047707  0.22695175    -0.80120
C2208       C  0.77859634  0.01636172  0.15033245     0.83320
O2209       O  0.80118423  0.00867258  0.17262450    -0.67300
Ni2210     Ni  0.78052682  0.96379661  0.30804420     1.27450
Ni2211     Ni  0.72572470  0.50520082  0.26270203     1.26060
H2212       H  0.75360625  0.53555655  0.21395820     0.37870
O2213       O  0.89899326  0.54865854  0.10334150    -0.82090
O2214       O  0.89706954  0.56121817  0.42523593    -0.66780
O2215       O  0.92291111  0.55574351  0.02668482    -1.13380
C2216       C  0.92220349  0.65154872  0.51541324     1.04800
O2217       O  0.91121336  0.60629647  0.40286108    -0.79980
O2218       O  0.95681459  0.60711518  0.45242767    -0.67570
Ni2219     Ni  0.91099682  0.52526520  0.06559787     1.34870
C2220       C  0.97242202  0.60445398  0.48219126     0.83540
O2221       O  0.92235987  0.52066802  0.47220625    -0.80520
O2222       O  0.92138339  0.49887450  0.03246616    -0.90800
C2223       C  0.90511417  0.58099975  0.39792817     0.83110
O2224       O  0.86626776  0.52185034  0.05338232    -0.69000
O2225       O  0.92771697  0.65054801  0.48082083    -0.88290
C2226       C  0.85241900  0.52571640  0.52226101     0.83940
C2227       C  0.92091254  0.49870328  0.49733977     1.05510
H2228       H  0.87264845  0.59789323  0.48307495     0.37310
O2229       O  0.89635331  0.59610369  0.48228864    -1.10950
O2230       O  0.95844934  0.60301717  0.01469483    -0.67600
Ni2231     Ni  0.91299336  0.59348830  0.03216356     1.26350
O2232       O  0.86474501  0.54148324  0.49234506    -0.67830
O2233       O  0.90556840  0.63212548  0.03646396    -0.80120
C2234       C  0.91108507  0.57221915  0.10927067     0.83320
O2235       O  0.92642486  0.58905053  0.08296867    -0.67300
Ni2236     Ni  0.91660056  0.62581834  0.44519528     1.27450
Ni2237     Ni  0.90878517  0.55792811  0.47680349     1.26060
H2238       H  0.94658345  0.55407972  0.02472243     0.37870
O2239       O  0.89708036  0.55071478  0.35256495    -0.82090
O2240       O  0.90060830  0.56025553  0.17559240    -0.66780
O2241       O  0.92441981  0.55707890  0.27730366    -1.13380
C2242       C  0.92084444  0.65295061  0.26305122     1.04800
O2243       O  0.91392144  0.60524039  0.15204425    -0.79980
O2244       O  0.95897993  0.60855207  0.20237518    -0.67570
Ni2245     Ni  0.91168032  0.52698794  0.31639849     1.34870
C2246       C  0.97394571  0.60610258  0.23262988     0.83540
O2247       O  0.92624852  0.52120874  0.22382634    -0.80520
O2248       O  0.92421091  0.50025840  0.28449549    -0.90800
C2249       C  0.90801826  0.57971329  0.14784010     0.83110
O2250       O  0.86764532  0.52301036  0.30264512    -0.69000
O2251       O  0.92712284  0.65152759  0.22870614    -0.88290
C2252       C  0.85456383  0.52667355  0.27108080     0.83940
C2253       C  0.92445590  0.49956206  0.24936468     1.05510
H2254       H  0.87432350  0.59772185  0.23131284     0.37310
O2255       O  0.89807103  0.59636465  0.23116323    -1.10950
O2256       O  0.95921789  0.60475524  0.26486556    -0.67600
Ni2257     Ni  0.91343543  0.59476323  0.28150619     1.26350
O2258       O  0.86761966  0.54186781  0.24130513    -0.67830
O2259       O  0.90482439  0.63337523  0.28450553    -0.80120
C2260       C  0.90897888  0.57411403  0.35903961     0.83320
O2261       O  0.92507896  0.59095100  0.33318403    -0.67300
Ni2262     Ni  0.91800722  0.62585942  0.19369215     1.27450
Ni2263     Ni  0.91160338  0.55830337  0.22704236     1.26060
H2264       H  0.94814603  0.55565797  0.27622866     0.37870
O2265       O  0.56460117  0.61704243  0.38490164    -0.82090
O2266       O  0.56340885  0.61021315  0.06470576    -0.66780
O2267       O  0.58289170  0.61554331  0.45816210    -1.13380
C2268       C  0.57782512  0.51398672  0.49274188     1.04800
O2269       O  0.60196956  0.57797437  0.07914459    -0.79980
O2270       O  0.63378240  0.55092847  0.02633440    -0.67570
Ni2271     Ni  0.55311062  0.63663098  0.42399522     1.34870
C2272       C  0.64384382  0.55598373  0.99209940     0.83540
O2273       O  0.56766153  0.65467197  0.00506702    -0.80520
O2274       O  0.53639994  0.66111976  0.45556186    -0.90800
C2275       C  0.58156783  0.59565807  0.08901529     0.83110
O2276       O  0.52011824  0.60919509  0.44413929    -0.69000
O2277       O  0.58073019  0.51711363  0.02664672    -0.88290
C2278       C  0.50773649  0.60727320  0.47733801     0.83940
C2279       C  0.54510319  0.66790063  0.98551867     1.05510
H2280       H  0.54800088  0.56721807  0.01610768     0.37310
O2281       O  0.57063035  0.57388507  0.01233165    -1.10950
O2282       O  0.62718456  0.56930803  0.46559804    -0.67600
Ni2283     Ni  0.58034375  0.57464412  0.46045443     1.26350
O2284       O  0.52418902  0.61176098  0.00496454    -0.67830
O2285       O  0.57627642  0.53438124  0.46506454    -0.80120
C2286       C  0.57889178  0.59468302  0.38011319     0.83320
O2287       O  0.58900562  0.57647340  0.40708312    -0.67300
Ni2288     Ni  0.59100339  0.54881485  0.05054875     1.27450
Ni2289     Ni  0.57121921  0.61394955  0.01057590     1.26060
H2290       H  0.60526736  0.62260032  0.45256651     0.37870
O2291       O  0.56777701  0.62281870  0.13600322    -0.82090
O2292       O  0.56308436  0.60445860  0.31747282    -0.66780
O2293       O  0.58564739  0.61602338  0.21171997    -1.13380
C2294       C  0.58109668  0.51502869  0.23866489     1.04800
O2295       O  0.60417406  0.57482103  0.33051898    -0.79980
O2296       O  0.63820319  0.55592120  0.27380312    -0.67570
Ni2297     Ni  0.55713914  0.63985472  0.17917431     1.34870
C2298       C  0.64634044  0.55770421  0.23932406     0.83540
O2299       O  0.56967351  0.65174829  0.26646195    -0.80520
O2300       O  0.54148173  0.66172830  0.21557598    -0.90800
C2301       C  0.58212855  0.59067829  0.34091590     0.83110
O2302       O  0.52250223  0.61294987  0.19548853    -0.69000
O2303       O  0.58911035  0.51773179  0.27136212    -0.88290
C2304       C  0.50961635  0.60874357  0.22866891     0.83940
C2305       C  0.54796501  0.66623775  0.24762902     1.05510
H2306       H  0.55024682  0.56526035  0.26730610     0.37310
O2307       O  0.57264330  0.57245253  0.26267948    -1.10950
O2308       O  0.62780340  0.56797914  0.21285919    -0.67600
Ni2309     Ni  0.58103144  0.57561509  0.21005705     1.26350
O2310       O  0.52589733  0.61035969  0.25753438    -0.67830
O2311       O  0.57506201  0.53557258  0.21227664    -0.80120
C2312       C  0.57918130  0.59954876  0.12929778     0.83320
O2313       O  0.58760284  0.57972455  0.15559488    -0.67300
Ni2314     Ni  0.59617638  0.54766890  0.29849378     1.27450
Ni2315     Ni  0.57287788  0.61164734  0.26473718     1.26060
H2316       H  0.60836308  0.62241965  0.20724710     0.37870
O2317       O  0.58193650  0.87924105  0.08729754    -0.82090
O2318       O  0.57250408  0.89307799  0.40572056    -0.66780
O2319       O  0.59992154  0.88600451  0.00875438    -1.13380
C2320       C  0.58024968  0.98532110  0.98431782     1.04800
O2321       O  0.60822813  0.92861088  0.38773930    -0.79980
O2322       O  0.64144196  0.95151592  0.43834566    -0.67570
Ni2323     Ni  0.57725079  0.85901708  0.04721658     1.34870
C2324       C  0.65166170  0.95135939  0.47091920     0.83540
O2325       O  0.58556539  0.84690182  0.45606730    -0.80520
O2326       O  0.56888984  0.83323853  0.01543352    -0.90800
C2327       C  0.58880184  0.90979220  0.37978192     0.83110
O2328       O  0.53620482  0.87676894  0.03530865    -0.69000
O2329       O  0.58815101  0.98353751  0.45033677    -0.88290
C2330       C  0.52278032  0.87929044  0.00379650     0.83940
C2331       C  0.57149774  0.82885989  0.48218164     1.05510
H2332       H  0.55586359  0.93043450  0.45956369     0.37310
O2333       O  0.57917706  0.92659990  0.46028483    -1.10950
O2334       O  0.63553865  0.93967799  0.00048964    -0.67600
Ni2335     Ni  0.59017757  0.92543969  0.01138139     1.26350
O2336       O  0.53875201  0.88153345  0.47234869    -0.67830
O2337       O  0.57816929  0.96409388  0.01108847    -0.80120
C2338       C  0.59186196  0.90337683  0.09176139     0.83320
O2339       O  0.59968168  0.92304728  0.06409083    -0.67300
Ni2340     Ni  0.59780510  0.95453095  0.42137872     1.27450
Ni2341     Ni  0.58464942  0.88750319  0.45751973     1.26060
H2342       H  0.62341921  0.88297191  0.00914118     0.37870
O2343       O  0.56963331  0.88584605  0.33303666    -0.82090
O2344       O  0.57680767  0.89155420  0.15733842    -0.66780
O2345       O  0.60087803  0.88758240  0.26030191    -1.13380
C2346       C  0.58180904  0.98643505  0.23049125     1.04800
O2347       O  0.61224999  0.92734089  0.13866670    -0.79980
O2348       O  0.64265957  0.95488231  0.18779065    -0.67570
Ni2349     Ni  0.58163319  0.85978128  0.30036850     1.34870
C2350       C  0.65353646  0.95289857  0.22046824     0.83540
O2351       O  0.58724016  0.84688149  0.21224624    -0.80520
O2352       O  0.59272219  0.83076226  0.27246724    -0.90800
C2353       C  0.59348478  0.90787046  0.13117845     0.83110
O2354       O  0.53744781  0.86281144  0.28352527    -0.69000
O2355       O  0.58716117  0.98410672  0.19637534    -0.88290
C2356       C  0.52431600  0.87296245  0.25296764     0.83940
C2357       C  0.58051415  0.82850756  0.24169059     1.05510
H2358       H  0.55837993  0.93095295  0.20921297     0.37310
O2359       O  0.58169553  0.92714186  0.20994296    -1.10950
O2360       O  0.63791625  0.94000358  0.25006451    -0.67600
Ni2361     Ni  0.59212933  0.92688303  0.26076435     1.26350
O2362       O  0.54049768  0.88318048  0.22281961    -0.67830
O2363       O  0.58150559  0.96586739  0.25825946    -0.80120
C2364       C  0.58674286  0.90640680  0.33999333     0.83320
O2365       O  0.60120009  0.92400459  0.31351912    -0.67300
Ni2366     Ni  0.59939003  0.95438067  0.16983505     1.27450
Ni2367     Ni  0.58689797  0.88765705  0.20967202     1.26060
H2368       H  0.62448143  0.88509248  0.26024204     0.37870
O2369       O  0.94182246  0.87613504  0.42045193    -0.82090
O2370       O  0.93696557  0.88514411  0.09396989    -0.66780
O2371       O  0.91091910  0.87737568  0.49355323    -1.13380
C2372       C  0.90837998  0.97222873  0.48790368     1.04800
O2373       O  0.89284706  0.91192062  0.10100132    -0.79980
O2374       O  0.85695406  0.91041914  0.03779462    -0.67570
Ni2375     Ni  0.93152179  0.85154447  0.46673899     1.34870
C2376       C  0.84589902  0.91915070  0.50576089     0.83540
O2377       O  0.94196896  0.83818265  0.05777663    -0.80520
O2378       O  0.91932998  0.82569873  0.51087956    -0.90800
C2379       C  0.91853656  0.89919104  0.11381234     0.83110
O2380       O  0.97495498  0.86243912  0.48069739    -0.69000
O2381       O  0.88362204  0.96216355  0.00795515    -0.88290
C2382       C  0.98735377  0.87672087  0.50350190     0.83940
C2383       C  0.94061667  0.82083468  0.03474726     1.05510
H2384       H  0.94088116  0.92838262  0.03027265     0.37310
O2385       O  0.92055847  0.91813426  0.02819361    -1.10950
O2386       O  0.86577349  0.92189109  0.47700357    -0.67600
Ni2387     Ni  0.91436846  0.91714106  0.47540817     1.26350
O2388       O  0.97081242  0.88657391  0.02846044    -0.67830
O2389       O  0.92150732  0.95832277  0.46407720    -0.80120
C2390       C  0.92378427  0.89546015  0.40444875     0.83320
O2391       O  0.90976465  0.91334859  0.42264853    -0.67300
Ni2392     Ni  0.88776430  0.93597116  0.05334503     1.27450
Ni2393     Ni  0.92656921  0.87852260  0.04445258     1.26060
H2394       H  0.88776974  0.87213272  0.49621685     0.37870
O2395       O  0.94354362  0.87967283  0.16947457    -0.82090
O2396       O  0.93706321  0.88230740  0.34373097    -0.66780
O2397       O  0.91169251  0.87871877  0.24167276    -1.13380
C2398       C  0.91310280  0.97306755  0.24054426     1.04800
O2399       O  0.89356137  0.90969474  0.35059455    -0.79980
O2400       O  0.85849944  0.91198179  0.28694298    -0.67570
Ni2401     Ni  0.93059716  0.85319984  0.21313308     1.34870
C2402       C  0.84834449  0.92172191  0.25481907     0.83540
O2403       O  0.93807658  0.83633770  0.30447744    -0.80520
O2404       O  0.91586156  0.82652617  0.25531896    -0.90800
C2405       C  0.91859563  0.89632071  0.36381055     0.83110
O2406       O  0.97498922  0.85901193  0.22893547    -0.69000
O2407       O  0.88796688  0.96319591  0.26023606    -0.88290
C2408       C  0.98834244  0.87193638  0.25258438     0.83940
C2409       C  0.93642156  0.82026055  0.27985424     1.05510
H2410       H  0.94420015  0.92675556  0.28138895     0.37310
O2411       O  0.92331907  0.91762687  0.27847910    -1.10950
O2412       O  0.86881658  0.92496689  0.22664715    -0.67600
Ni2413     Ni  0.91700959  0.91857275  0.22547434     1.26350
O2414       O  0.97227549  0.88276874  0.27722462    -0.67830
O2415       O  0.92580658  0.95942891  0.21619657    -0.80120
C2416       C  0.92498916  0.89875000  0.15390822     0.83320
O2417       O  0.91162773  0.91660615  0.17245750    -0.67300
Ni2418     Ni  0.89068276  0.93545475  0.30420304     1.27450
Ni2419     Ni  0.92691294  0.87758988  0.29289057     1.26060
H2420       H  0.88830241  0.87440582  0.24385473     0.37870
O2421       O  0.44229671  0.77563378  0.45332396    -0.82090
O2422       O  0.53479059  0.75544169  0.07384976    -0.66780
O2423       O  0.49927600  0.75457316  0.48189455    -1.13380
C2424       C  0.93992792  0.67404154  0.53086441     1.04800
O2425       O  0.53487800  0.70836410  0.09239580    -0.79980
O2426       O  0.53066532  0.69021666  0.03355233    -0.67570
Ni2427     Ni  0.48789168  0.78869411  0.45090446     1.34870
C2428       C  0.52380866  0.68752431  0.00137476     0.83540
O2429       O  0.54613332  0.78630405  0.00838617    -0.80520
O2430       O  0.53282414  0.80434105  0.44954041    -0.90800
C2431       C  0.54521816  0.73343046  0.09432161     0.83110
O2432       O  0.97545844  0.80976654  0.48800392    -0.69000
O2433       O  0.96582907  0.66807109  0.04977077    -0.88290
C2434       C  0.96888148  0.80382379  0.52276816     0.83940
C2435       C  0.55090371  0.80398887  0.97788193     1.05510
H2436       H  0.96754103  0.73292431  0.06370799     0.37310
O2437       O  0.98403967  0.72654262  0.04725453    -1.10950
O2438       O  0.49702885  0.69748962  0.48627214    -0.67600
Ni2439     Ni  0.96627011  0.72663063  0.50014134     1.26350
O2440       O  0.98239514  0.78298659  0.04331423    -0.67830
O2441       O  0.93282838  0.69937291  0.51864830    -0.80120
C2442       C  0.43428432  0.75353205  0.44054846     0.83320
O2443       O  0.44683582  0.72992467  0.45398840    -0.67300
Ni2444     Ni  0.99920486  0.69085693  0.07119590     1.27450
Ni2445     Ni  0.51564089  0.75640101  0.02838250     1.26060
H2446       H  0.51611329  0.74630495  0.46779614     0.37870
O2447       O  0.96191992  0.77190636  0.18311485    -0.82090
O2448       O  0.02615102  0.75824907  0.33523198    -0.66780
O2449       O  0.50586278  0.75602321  0.23523231    -1.13380
C2450       C  0.93744568  0.67608359  0.27816249     1.04800
O2451       O  0.01700658  0.71392127  0.35497867    -0.79980
O2452       O  0.52504997  0.68528693  0.29893424    -0.67570
Ni2453     Ni  0.49797954  0.79031239  0.20049586     1.34870
C2454       C  0.52474904  0.68505846  0.26415107     0.83540
O2455       O  0.55004725  0.78711151  0.27034638    -0.80520
O2456       O  0.53496075  0.81061582  0.21480515    -0.90800
C2457       C  0.01035780  0.73935265  0.35742778     0.83110
O2458       O  0.96758842  0.80407504  0.23337699    -0.69000
O2459       O  0.95838279  0.67023300  0.30378002    -0.88290
C2460       C  0.96405228  0.80270724  0.26848783     0.83940
C2461       C  0.55429151  0.80684095  0.24181843     1.05510
H2462       H  0.96009212  0.73780752  0.30550291     0.37310
O2463       O  0.97971069  0.72956396  0.29643097    -1.10950
O2464       O  0.50234831  0.69774974  0.24352947    -0.67600
Ni2465     Ni  0.96975615  0.72758576  0.24744734     1.26350
O2466       O  0.98264186  0.78773129  0.29128630    -0.67830
O2467       O  0.93438780  0.70101959  0.26073346    -0.80120
C2468       C  0.96980639  0.74810707  0.17580664     0.83320
O2469       O  0.95767696  0.72718152  0.19746445    -0.67300
Ni2470     Ni  0.98770057  0.69364330  0.32870611     1.27450
Ni2471     Ni  0.51544197  0.75875553  0.28469928     1.26060
H2472       H  0.52518646  0.74734615  0.22605120     0.37870
C2473       C  0.97689945  0.74654024  0.36917659    -0.07320
C2474       C  0.45212975  0.72493545  0.37609869    -0.18450
C2475       C  0.42077703  0.73150303  0.38920989     0.09880
C2476       C  0.41913071  0.75677857  0.40367654    -0.07250
C2477       C  0.93468063  0.77993763  0.38058973    -0.18480
C2478       C  0.96740590  0.77524759  0.36970033     0.09910
S2479       S  0.39027981  0.70367234  0.40242046    -0.33450
S2480       S  0.99581909  0.80519936  0.36486496    -0.33450
H2481       H  0.02126909  0.78960406  0.38345464     0.27920
H2482       H  0.36769983  0.72092460  0.41814329     0.27910
H2483       H  0.45701926  0.70326742  0.37304347     0.18510
H2484       H  0.92779188  0.80123885  0.38391517     0.18510
C2485       C  0.56258145  0.73709227  0.12856761    -0.07320
C2486       C  0.05119023  0.71526340  0.15720014    -0.18450
C2487       C  0.01718972  0.71687160  0.16567755     0.09880
C2488       C  0.00336790  0.74452732  0.16148232    -0.07250
C2489       C  0.52468657  0.76859728  0.14961098    -0.18480
C2490       C  0.55700905  0.76418127  0.13709306     0.09910
S2491       S  0.99199359  0.68528769  0.16519238    -0.33450
S2492       S  0.58309587  0.79407491  0.11732886    -0.33450
H2493       H  0.60808531  0.77743706  0.10455499     0.27920
H2494       H  0.96784028  0.69961554  0.14270324     0.27910
H2495       H  0.06159038  0.69447322  0.15740159     0.18510
H2496       H  0.51603694  0.79012591  0.14728013     0.18510
C2497       C  0.73938895  0.53853631  0.32581150    -0.07320
C2498       C  0.72349566  0.04873040  0.35560269    -0.18450
C2499       C  0.74384633  0.05601913  0.38319528     0.09880
C2500       C  0.77635743  0.04534135  0.38362937    -0.07250
C2501       C  0.79194824  0.05038612  0.34790279    -0.18480
C2502       C  0.77188898  0.54974796  0.31737837     0.09910
S2503       S  0.73036794  0.07904583  0.41472188    -0.33450
S2504       S  0.78437732  0.56840867  0.27170930    -0.33450
H2505       H  0.75265485  0.56803011  0.25760211     0.27920
H2506       H  0.69921945  0.08407614  0.39938240     0.27910
H2507       H  0.69688018  0.04967412  0.35815505     0.18510
H2508       H  0.81809827  0.05529469  0.34408143     0.18510
C2509       C  0.77504920  0.04675007  0.13160468    -0.07320
C2510       C  0.74183308  0.05550588  0.13293520    -0.18450
C2511       C  0.72099253  0.04639405  0.10691564     0.09880
C2512       C  0.73647726  0.53518790  0.07747906    -0.07250
C2513       C  0.76845169  0.54654589  0.06667170    -0.18480
C2514       C  0.78862311  0.55210889  0.09521880     0.09910
S2515       S  0.67693228  0.04556053  0.11444557    -0.33450
S2516       S  0.82802524  0.56937965  0.08461920    -0.33450
H2517       H  0.83437278  0.57049027  0.12217564     0.27920
H2518       H  0.67048761  0.03272812  0.08347191     0.27910
H2519       H  0.73126807  0.06195704  0.15788987     0.18510
H2520       H  0.77869500  0.54684096  0.03870636     0.18510
O2521       O  0.75113225  0.00014213  0.90531599    -0.82090
O2522       O  0.71066132  0.49303655  0.56393390    -0.66780
O2523       O  0.74258490  0.51512860  0.96720529    -1.13380
C2524       C  0.81609605  0.93703496  0.00519496     1.04800
O2525       O  0.76051102  0.49051170  0.58456561    -0.79980
O2526       O  0.81675387  0.48647072  0.54613428    -0.67570
Ni2527     Ni  0.71490580  0.51682196  0.92685085     1.34870
C2528       C  0.82231056  0.50817075  0.52060106     0.83540
O2529       O  0.69353447  0.53391795  0.50958462    -0.80520
O2530       O  0.67840858  0.53455906  0.95061948    -0.90800
C2531       C  0.73376745  0.50388099  0.57907734     0.83110
O2532       O  0.69598062  0.97968430  0.94150287    -0.69000
O2533       O  0.79834121  0.93310541  0.53565839    -0.88290
C2534       C  0.68123938  0.96957266  0.97242355     0.83940
C2535       C  0.67449077  0.54188265  0.48286069     1.05510
H2536       H  0.74243615  0.95570177  0.51209142     0.37310
O2537       O  0.75411259  0.97254433  0.51616430    -1.10950
O2538       O  0.80442931  0.51362625  0.99259416    -0.67600
Ni2539     Ni  0.77807883  0.98756525  0.97109150     1.26350
O2540       O  0.68808880  0.97813551  0.50277741    -0.67830
O2541       O  0.81239497  0.95834392  0.97837896    -0.80120
C2542       C  0.77749229  0.01503921  0.90206761     0.83320
O2543       O  0.79941836  0.00623039  0.92464418    -0.67300
Ni2544     Ni  0.77850658  0.96171899  0.55969272     1.27450
Ni2545     Ni  0.72338648  0.50304927  0.51417304     1.26060
H2546       H  0.75192913  0.53383071  0.96692962     0.37870
O2547       O  0.75304388  0.00007467  0.65476391    -0.82090
O2548       O  0.71363579  0.49628663  0.81270626    -0.66780
O2549       O  0.74467488  0.51670125  0.71534211    -1.13380
C2550       C  0.81810764  0.93891521  0.75411891     1.04800
O2551       O  0.76380449  0.49361901  0.83233042    -0.79980
O2552       O  0.81927236  0.48769206  0.79417999    -0.67570
Ni2553     Ni  0.71672573  0.51655790  0.67580364     1.34870
C2554       C  0.82474091  0.50945508  0.76889008     0.83540
O2555       O  0.69626203  0.53622764  0.75728955    -0.80520
O2556       O  0.68024352  0.53447528  0.69922596    -0.90800
C2557       C  0.73710470  0.50718155  0.82725201     0.83110
O2558       O  0.69916235  0.97909570  0.69223319    -0.69000
O2559       O  0.79992254  0.93487413  0.78428300    -0.88290
C2560       C  0.68368387  0.97011774  0.72296843     0.83940
C2561       C  0.67685099  0.54319921  0.73064608     1.05510
H2562       H  0.74449553  0.95767655  0.76085678     0.37310
O2563       O  0.75624001  0.97451176  0.76483156    -1.10950
O2564       O  0.80675129  0.51529333  0.74106822    -0.67600
Ni2565     Ni  0.78014375  0.98932568  0.71960428     1.26350
O2566       O  0.68993264  0.97995828  0.75245595    -0.67830
O2567       O  0.81454241  0.96019622  0.72718393    -0.80120
C2568       C  0.77849303  0.01608789  0.65053627     0.83320
O2569       O  0.80108098  0.00828762  0.67277269    -0.67300
Ni2570     Ni  0.78053083  0.96377776  0.80831520     1.27450
Ni2571     Ni  0.72585242  0.50524821  0.76260120     1.26060
H2572       H  0.75368192  0.53566933  0.71386135     0.37870
O2573       O  0.89894253  0.54877562  0.60333396    -0.82090
O2574       O  0.89716346  0.56115160  0.92514714    -0.66780
O2575       O  0.92291313  0.55580395  0.52670856    -1.13380
C2576       C  0.92221391  0.65150098  0.01536791     1.04800
O2577       O  0.91125316  0.60624301  0.90280244    -0.79980
O2578       O  0.95682723  0.60704990  0.95241317    -0.67570
Ni2579     Ni  0.91104997  0.52533997  0.56564787     1.34870
C2580       C  0.97242516  0.60440247  0.98218274     0.83540
O2581       O  0.92245340  0.52062958  0.97214788    -0.80520
O2582       O  0.92156155  0.49894369  0.53253852    -0.90800
C2583       C  0.90518812  0.58094515  0.89784556     0.83110
O2584       O  0.86633986  0.52177501  0.55342690    -0.69000
O2585       O  0.92772950  0.65049296  0.98077775    -0.88290
C2586       C  0.85240259  0.52572492  0.02218346     0.83940
C2587       C  0.92084826  0.49865724  0.99726092     1.05510
H2588       H  0.87266387  0.59782409  0.98300360     0.37310
O2589       O  0.89636984  0.59604361  0.98223543    -1.10950
O2590       O  0.95845501  0.60307679  0.51470458    -0.67600
Ni2591     Ni  0.91300524  0.59354515  0.53219340     1.26350
O2592       O  0.86478994  0.54141115  0.99223770    -0.67830
O2593       O  0.90556473  0.63217120  0.53650681    -0.80120
C2594       C  0.91108132  0.57232554  0.60926145     0.83320
O2595       O  0.92647933  0.58910973  0.58296638    -0.67300
Ni2596     Ni  0.91662274  0.62576053  0.94514986     1.27450
Ni2597     Ni  0.90883263  0.55787411  0.97674577     1.26060
H2598       H  0.94658434  0.55414390  0.52471093     0.37870
O2599       O  0.89714860  0.55073636  0.85232937    -0.82090
O2600       O  0.90038072  0.56047468  0.67555244    -0.66780
O2601       O  0.92457083  0.55719321  0.77711401    -1.13380
C2602       C  0.92115720  0.65305687  0.76307783     1.04800
O2603       O  0.91416435  0.60535753  0.65201312    -0.79980
O2604       O  0.95920407  0.60864925  0.70235474    -0.67570
Ni2605     Ni  0.91209182  0.52705321  0.81622145     1.34870
C2606       C  0.97417461  0.60619827  0.73260322     0.83540
O2607       O  0.92597276  0.52132573  0.72363088    -0.80520
O2608       O  0.92507389  0.50042825  0.78431364    -0.90800
C2609       C  0.90801651  0.57986605  0.64780695     0.83110
O2610       O  0.86813532  0.52261739  0.80243823    -0.69000
O2611       O  0.92738862  0.65165480  0.72870927    -0.88290
C2612       C  0.85477037  0.52665771  0.77102938     0.83940
C2613       C  0.92476796  0.49969896  0.74920950     1.05510
H2614       H  0.87451396  0.59800466  0.73129161     0.37310
O2615       O  0.89825395  0.59656356  0.73111963    -1.10950
O2616       O  0.95945172  0.60483340  0.76484171    -0.67600
Ni2617     Ni  0.91366098  0.59486455  0.78145514     1.26350
O2618       O  0.86756455  0.54219529  0.74137141    -0.67830
O2619       O  0.90514947  0.63347715  0.78454863    -0.80120
C2620       C  0.90909761  0.57408837  0.85893117     0.83320
O2621       O  0.92529180  0.59092411  0.83315141    -0.67300
Ni2622     Ni  0.91826161  0.62600401  0.69365605     1.27450
Ni2623     Ni  0.91157512  0.55846714  0.72693080     1.26060
H2624       H  0.94829569  0.55578571  0.77588544     0.37870
O2625       O  0.56461207  0.61700262  0.88491178    -0.82090
O2626       O  0.56344566  0.61023262  0.56470200    -0.66780
O2627       O  0.58289538  0.61554391  0.95817234    -1.13380
C2628       C  0.57788056  0.51398503  0.99273058     1.04800
O2629       O  0.60201774  0.57799836  0.57912055    -0.79980
O2630       O  0.63382775  0.55099426  0.52628191    -0.67570
Ni2631     Ni  0.55310556  0.63660224  0.92399815     1.34870
C2632       C  0.64384234  0.55597895  0.49202992     0.83540
O2633       O  0.56767126  0.65468695  0.50505800    -0.80520
O2634       O  0.53639288  0.66109580  0.95556404    -0.90800
C2635       C  0.58162171  0.59568283  0.58899893     0.83110
O2636       O  0.52012931  0.60915346  0.94415037    -0.69000
O2637       O  0.58080497  0.51712397  0.52663565    -0.88290
C2638       C  0.50774096  0.60723313  0.97734535     0.83940
C2639       C  0.54510326  0.66791358  0.48552254     1.05510
H2640       H  0.54800860  0.56722876  0.51615961     0.37310
O2641       O  0.57063688  0.57389461  0.51234176    -1.10950
O2642       O  0.62723513  0.56937816  0.96567307    -0.67600
Ni2643     Ni  0.58040423  0.57464821  0.96045351     1.26350
O2644       O  0.52419728  0.61177487  0.50496271    -0.67830
O2645       O  0.57641803  0.53438272  0.96504573    -0.80120
C2646       C  0.57897931  0.59467651  0.88011966     0.83320
O2647       O  0.58913789  0.57649373  0.90709127    -0.67300
Ni2648     Ni  0.59106104  0.54883455  0.55052975     1.27450
Ni2649     Ni  0.57123183  0.61396146  0.51056904     1.26060
H2650       H  0.60526332  0.62262297  0.95258368     0.37870
O2651       O  0.56799054  0.62289485  0.63597619    -0.82090
O2652       O  0.56325407  0.60449395  0.81745172    -0.66780
O2653       O  0.58583684  0.61602750  0.71170628    -1.13380
C2654       C  0.58110225  0.51504250  0.73860692     1.04800
O2655       O  0.60427008  0.57478066  0.83054885    -0.79980
O2656       O  0.63831497  0.55600082  0.77373980    -0.67570
Ni2657     Ni  0.55739229  0.63992912  0.67915562     1.34870
C2658       C  0.64641855  0.55770066  0.73926489     0.83540
O2659       O  0.56993706  0.65177806  0.76645112    -0.80520
O2660       O  0.54176918  0.66181218  0.71555865    -0.90800
C2661       C  0.58225086  0.59067702  0.84091769     0.83110
O2662       O  0.52269982  0.61307607  0.69544059    -0.69000
O2663       O  0.58926171  0.51775194  0.77125479    -0.88290
C2664       C  0.50981809  0.60884746  0.72862399     0.83940
C2665       C  0.54824786  0.66629692  0.74762226     1.05510
H2666       H  0.55034614  0.56530334  0.76733666     0.37310
O2667       O  0.57274945  0.57247239  0.76267520    -1.10950
O2668       O  0.62783935  0.56789220  0.71280312    -0.67600
Ni2669     Ni  0.58108591  0.57562660  0.71004299     1.26350
O2670       O  0.52609530  0.61044397  0.75749705    -0.67830
O2671       O  0.57497665  0.53559280  0.71226419    -0.80120
C2672       C  0.57927266  0.59958264  0.62927712     0.83320
O2673       O  0.58760926  0.57972489  0.65557691    -0.67300
Ni2674     Ni  0.59630487  0.54766676  0.79844635     1.27450
Ni2675     Ni  0.57306837  0.61167042  0.76472312     1.26060
H2676       H  0.60857138  0.62237104  0.70723724     0.37870
O2677       O  0.58184144  0.87911306  0.58725423    -0.82090
O2678       O  0.57229663  0.89304903  0.90589473    -0.66780
O2679       O  0.59989140  0.88597875  0.50868388    -1.13380
C2680       C  0.58043255  0.98526249  0.48424077     1.04800
O2681       O  0.60787101  0.92866891  0.88781592    -0.79980
O2682       O  0.64107064  0.95209139  0.93811162    -0.67570
Ni2683     Ni  0.57715975  0.85897611  0.54709431     1.34870
C2684       C  0.65154945  0.95156643  0.97066096     0.83540
O2685       O  0.58554079  0.84691597  0.95619806    -0.80520
O2686       O  0.56878491  0.83326064  0.51525632    -0.90800
C2687       C  0.58847606  0.90980398  0.87990684     0.83110
O2688       O  0.53618065  0.87681948  0.53513661    -0.69000
O2689       O  0.58750754  0.98358820  0.95031431    -0.88290
C2690       C  0.52277672  0.87935356  0.50361178     0.83940
C2691       C  0.57153208  0.82885664  0.98234001     1.05510
H2692       H  0.55573361  0.93037390  0.95993925     0.37310
O2693       O  0.57906730  0.92660499  0.96046912    -1.10950
O2694       O  0.63542375  0.93973180  0.50071247    -0.67600
Ni2695     Ni  0.59004890  0.92539606  0.51127929     1.26350
O2696       O  0.53873070  0.88148455  0.97253105    -0.67830
O2697       O  0.57792108  0.96401410  0.51094776    -0.80120
C2698       C  0.59161299  0.90329470  0.59168630     0.83320
O2699       O  0.59931299  0.92299291  0.56401658    -0.67300
Ni2700     Ni  0.59731965  0.95459965  0.92140592     1.27450
Ni2701     Ni  0.58458120  0.88751320  0.95764375     1.26060
H2702       H  0.62339222  0.88297210  0.50913200     0.37870
O2703       O  0.56960273  0.88560922  0.83324060    -0.82090
O2704       O  0.57674907  0.89161827  0.65733695    -0.66780
O2705       O  0.60097101  0.88774699  0.76030446    -1.13380
C2706       C  0.58277291  0.98643342  0.73068142     1.04800
O2707       O  0.61229305  0.92728218  0.63824570    -0.79980
O2708       O  0.64408941  0.95231706  0.68834371    -0.67570
Ni2709     Ni  0.58178001  0.85977634  0.80031096     1.34870
C2710       C  0.65394911  0.95217421  0.72112020     0.83540
O2711       O  0.58727514  0.84702500  0.71216836    -0.80520
O2712       O  0.59305652  0.83089614  0.77228331    -0.90800
C2713       C  0.59335286  0.90784809  0.63103926     0.83110
O2714       O  0.53758054  0.86274514  0.78342980    -0.69000
O2715       O  0.59013420  0.98413158  0.69694203    -0.88290
C2716       C  0.52442585  0.87306647  0.75294302     0.83940
C2717       C  0.58070679  0.82862387  0.74160293     1.05510
H2718       H  0.55861398  0.93131976  0.70841750     0.37310
O2719       O  0.58185801  0.92729416  0.70971554    -1.10950
O2720       O  0.63746358  0.94063580  0.75079753    -0.67600
Ni2721     Ni  0.59178671  0.92695752  0.76080216     1.26350
O2722       O  0.54059542  0.88343297  0.72284513    -0.67830
O2723       O  0.58056753  0.96577621  0.75830469    -0.80120
C2724       C  0.58637117  0.90638166  0.84013063     0.83320
O2725       O  0.60052150  0.92413737  0.81362903    -0.67300
Ni2726     Ni  0.60087002  0.95425717  0.67002156     1.27450
Ni2727     Ni  0.58698430  0.88779343  0.70961693     1.26060
H2728       H  0.62459917  0.88541850  0.76025847     0.37870
O2729       O  0.94192106  0.87621434  0.92050598    -0.82090
O2730       O  0.93701766  0.88519582  0.59387301    -0.66780
O2731       O  0.91094443  0.87743043  0.99359748    -1.13380
C2732       C  0.90854734  0.97230365  0.98807238     1.04800
O2733       O  0.89286107  0.91193793  0.60092372    -0.79980
O2734       O  0.85691502  0.91031120  0.53776696    -0.67570
Ni2735     Ni  0.93155271  0.85160208  0.96677526     1.34870
C2736       C  0.84598880  0.91927969  0.00576901     0.83540
O2737       O  0.94208749  0.83821646  0.55769758    -0.80520
O2738       O  0.91928927  0.82573027  0.01087057    -0.90800
C2739       C  0.91855107  0.89920322  0.61373883     0.83110
O2740       O  0.97496989  0.86243935  0.98084902    -0.69000
O2741       O  0.88347038  0.96206205  0.50778968    -0.88290
C2742       C  0.98735504  0.87666257  0.00372993     0.83940
C2743       C  0.94070317  0.82084205  0.53470584     1.05510
H2744       H  0.94081223  0.92840452  0.53011209     0.37310
O2745       O  0.92050433  0.91812320  0.52807368    -1.10950
O2746       O  0.86589778  0.92203055  0.97704276    -0.67600
Ni2747     Ni  0.91447540  0.91720508  0.97551041     1.26350
O2748       O  0.97082642  0.88663779  0.52824911    -0.67830
O2749       O  0.92167568  0.95838154  0.96425891    -0.80120
C2750       C  0.92392235  0.89557303  0.90449958     0.83320
O2751       O  0.90991977  0.91346220  0.92271738    -0.67300
Ni2752     Ni  0.88769131  0.93593423  0.55323095     1.27450
Ni2753     Ni  0.92660476  0.87852988  0.54436330     1.26060
H2754       H  0.88778662  0.87221504  0.99621093     0.37870
O2755       O  0.94359290  0.87970652  0.66942710    -0.82090
O2756       O  0.93719417  0.88246087  0.84373193    -0.66780
O2757       O  0.91181057  0.87871390  0.74170120    -1.13380
C2758       C  0.91273946  0.97303709  0.74043380     1.04800
O2759       O  0.89371071  0.90988594  0.85065589    -0.79980
O2760       O  0.85851732  0.91177092  0.78709379    -0.67570
Ni2761     Ni  0.93077708  0.85323192  0.71315924     1.34870
C2762       C  0.84823229  0.92145043  0.75500834     0.83540
O2763       O  0.93836499  0.83644934  0.80450380    -0.80520
O2764       O  0.91613178  0.82655924  0.75539256    -0.90800
C2765       C  0.91873550  0.89646947  0.86383896     0.83110
O2766       O  0.97517054  0.85913765  0.72893330    -0.69000
O2767       O  0.88762594  0.96304302  0.76004588    -0.88290
C2768       C  0.98851560  0.87208643  0.75256997     0.83940
C2769       C  0.93671886  0.82034379  0.77990858     1.05510
H2770       H  0.94414341  0.92689636  0.78127739     0.37310
O2771       O  0.92329097  0.91770014  0.77842675    -1.10950
O2772       O  0.86863351  0.92471490  0.72675305    -0.67600
Ni2773     Ni  0.91690560  0.91857082  0.72543332     1.26350
O2774       O  0.97242684  0.88294172  0.77718238    -0.67830
O2775       O  0.92551702  0.95947565  0.71605155    -0.80120
C2776       C  0.92496694  0.89873614  0.65386479     0.83320
O2777       O  0.91149888  0.91653283  0.67243605    -0.67300
Ni2778     Ni  0.89058155  0.93547340  0.80414422     1.27450
Ni2779     Ni  0.92705908  0.87767583  0.79289228     1.26060
H2780       H  0.88843993  0.87431771  0.74393292     0.37870
O2781       O  0.44233582  0.77562789  0.95330977    -0.82090
O2782       O  0.53486604  0.75547699  0.57373956    -0.66780
O2783       O  0.49928373  0.75457569  0.98195452    -1.13380
C2784       C  0.93993979  0.67400537  0.03080894     1.04800
O2785       O  0.53487667  0.70840773  0.59237603    -0.79980
O2786       O  0.53064122  0.69019597  0.53357945    -0.67570
Ni2787     Ni  0.48791814  0.78870424  0.95096683     1.34870
C2788       C  0.52379131  0.68751973  0.50139303     0.83540
O2789       O  0.54617003  0.78629148  0.50823576    -0.80520
O2790       O  0.53284026  0.80436558  0.94967888    -0.90800
C2791       C  0.54527429  0.73347027  0.59423524     0.83110
O2792       O  0.97544928  0.80977036  0.98810279    -0.69000
O2793       O  0.96582635  0.66810380  0.54980428    -0.88290
C2794       C  0.96880688  0.80380617  0.02285315     0.83940
C2795       C  0.55090977  0.80397345  0.47772316     1.05510
H2796       H  0.96759930  0.73299369  0.56366864     0.37310
O2797       O  0.98407404  0.72658125  0.54721459    -1.10950
O2798       O  0.49704545  0.69749005  0.98625956    -0.67600
Ni2799     Ni  0.96628434  0.72662610  0.00014650     1.26350
O2800       O  0.98250654  0.78302057  0.54321547    -0.67830
O2801       O  0.93284485  0.69933762  0.01857149    -0.80120
C2802       C  0.43436459  0.75353325  0.94049758     0.83320
O2803       O  0.44687750  0.72991999  0.95397990    -0.67300
Ni2804     Ni  0.99920774  0.69089724  0.57119978     1.27450
Ni2805     Ni  0.51567457  0.75641188  0.52829707     1.26060
H2806       H  0.51613883  0.74631719  0.96786879     0.37870
O2807       O  0.96218289  0.77199296  0.68314890    -0.82090
O2808       O  0.02651043  0.75836195  0.83523037    -0.66780
O2809       O  0.50611245  0.75609287  0.73525803    -1.13380
C2810       C  0.93778343  0.67618188  0.77819132     1.04800
O2811       O  0.01739472  0.71402524  0.85495828    -0.79980
O2812       O  0.52535328  0.68534574  0.79894030    -0.67570
Ni2813     Ni  0.49818544  0.79037290  0.70052937     1.34870
C2814       C  0.52503869  0.68511942  0.76415836     0.83540
O2815       O  0.55029249  0.78721197  0.77035661    -0.80520
O2816       O  0.53514924  0.81068765  0.71482077    -0.90800
C2817       C  0.01073718  0.73945160  0.85743132     0.83110
O2818       O  0.96786752  0.80416280  0.73341789    -0.69000
O2819       O  0.95873689  0.67032709  0.80379281    -0.88290
C2820       C  0.96436033  0.80280566  0.76853019     0.83940
C2821       C  0.55449643  0.80693782  0.74181698     1.05510
H2822       H  0.96044926  0.73790698  0.80552171     0.37310
O2823       O  0.98006739  0.72966715  0.79644394    -1.10950
O2824       O  0.50262746  0.69781297  0.74355218    -0.67600
Ni2825     Ni  0.97008062  0.72768563  0.74747542     1.26350
O2826       O  0.98297151  0.78784074  0.79131489    -0.67830
O2827       O  0.93471579  0.70112156  0.76078505    -0.80120
C2828       C  0.97006929  0.74819409  0.67584100     0.83320
O2829       O  0.95796052  0.72727062  0.69751402    -0.67300
Ni2830     Ni  0.98807175  0.69374217  0.82870595     1.27450
Ni2831     Ni  0.51570911  0.75883131  0.78472472     1.26060
H2832       H  0.52543535  0.74742484  0.72605937     0.37870
C2833       C  0.97727552  0.74661926  0.86920150    -0.07320
C2834       C  0.45243651  0.72495369  0.87609571    -0.18450
C2835       C  0.42104426  0.73151400  0.88909685     0.09880
C2836       C  0.41933266  0.75678791  0.90356082    -0.07250
C2837       C  0.93501817  0.78001065  0.88052546    -0.18480
C2838       C  0.96776692  0.77532094  0.86972918     0.09910
S2839       S  0.39054860  0.70367051  0.90221793    -0.33450
S2840       S  0.99617066  0.80527553  0.86494391    -0.33450
H2841       H  0.02162208  0.78967419  0.88352318     0.27920
H2842       H  0.36790974  0.72091445  0.91786789     0.27910
H2843       H  0.45735245  0.70328625  0.87306118     0.18510
H2844       H  0.92811477  0.80130880  0.88384916     0.18510
C2845       C  0.56271295  0.73714836  0.62842704    -0.07320
C2846       C  0.05142344  0.71535514  0.65707892    -0.18450
C2847       C  0.01744128  0.71695994  0.66565678     0.09880
C2848       C  0.00361570  0.74461449  0.66147606    -0.07250
C2849       C  0.52487504  0.76865266  0.64957740    -0.18480
C2850       C  0.55716574  0.76424174  0.63695112     0.09910
S2851       S  0.99223619  0.68536603  0.66525508    -0.33450
S2852       S  0.58320964  0.79413896  0.61708690    -0.33450
H2853       H  0.60815894  0.77750431  0.60422638     0.27920
H2854       H  0.96806016  0.69967584  0.64278319     0.27910
H2855       H  0.06181853  0.69456339  0.65727474     0.18510
H2856       H  0.51622553  0.79017927  0.64728103     0.18510
C2857       C  0.73955881  0.53855079  0.82567857    -0.07320
C2858       C  0.72352546  0.04880143  0.85576617    -0.18450
C2859       C  0.74395212  0.05615015  0.88325978     0.09880
C2860       C  0.77645786  0.04546786  0.88362528    -0.07250
C2861       C  0.79196369  0.05047598  0.84785116    -0.18480
C2862       C  0.77207430  0.54976860  0.81739664     0.09910
S2863       S  0.73053916  0.07916781  0.91482687    -0.33450
S2864       S  0.78468476  0.56851285  0.77181185    -0.33450
H2865       H  0.75303292  0.56806685  0.75753784     0.27920
H2866       H  0.69937508  0.08421809  0.89953565     0.27910
H2867       H  0.69691260  0.04971820  0.85841729     0.18510
H2868       H  0.81810539  0.05539963  0.84394001     0.18510
C2869       C  0.77504681  0.04653351  0.63198863    -0.07320
C2870       C  0.74186002  0.05536068  0.63325581    -0.18450
C2871       C  0.72107036  0.04639724  0.60708851     0.09880
C2872       C  0.73640095  0.53512127  0.57740428    -0.07250
C2873       C  0.76834807  0.54649498  0.56648964    -0.18480
C2874       C  0.78856723  0.55215473  0.59494566     0.09910
S2875       S  0.67699983  0.04564464  0.61447669    -0.33450
S2876       S  0.82793905  0.56945608  0.58418139    -0.33450
H2877       H  0.83434356  0.57068755  0.62168926     0.27920
H2878       H  0.67060966  0.03293537  0.58338578     0.27910
H2879       H  0.73125926  0.06178460  0.65821006     0.18510
H2880       H  0.77853179  0.54675782  0.53850811     0.18510
loop_ 
_geom_bond_atom_site_label_1 
_geom_bond_atom_site_label_2 
_geom_bond_distance 
_geom_bond_site_symmetry_2 
_ccdc_geom_bond_type 
O1           C22   1.268       .  A
O1         Ni727   1.885       .  S
O2           C11   1.257   1_565  A
O2          Ni25   1.839   1_565  S
O3           Ni7   1.874       .  S
O3         Ni385   1.842       .  S
O3         Ni739   1.954   1_545  S
O3           H26   0.965       .  S
C4           O21   1.296       .  A
C4          O373   1.278       .  A
C4          C216   1.486       .  S
O5           C11   1.270   1_565  A
O5         Ni744   1.912       .  S
O6            C8   1.277   1_565  A
O6         Ni744   1.940       .  S
Ni7          O10   1.958       .  S
Ni7         O721   1.885   1_545  S
Ni7         O732   1.905   1_545  S
C8          O378   1.263   1_554  A
C8          C426   1.483       .  S
O9           C15   1.274   1_554  A
O9          Ni25   1.908       .  S
O10         C375   1.286       .  A
C11         C352   1.486       .  S
O12          C14   1.266       .  A
O12        Ni727   1.905       .  S
O13         C364   1.278       .  A
O13         Ni24   1.913       .  S
C14         O380   1.275       .  A
C14         C164   1.483       .  S
C15         O370   1.286       .  A
C15         C112   1.475       .  S
H16          O17   0.966       .  S
O17         Ni24   1.898       .  S
O17        Ni745   1.923       .  S
O17        Ni379   1.893   1_554  S
O18         C368   1.263       .  A
O18        Ni739   1.920   1_545  S
Ni19         O23   1.932       .  S
Ni19         O21   1.975       .  S
Ni19        O738   1.920       .  S
Ni19        O723   1.955       .  S
Ni19        O377   1.893       .  S
O20         C374   1.275   1_554  A
O20        Ni745   1.958       .  S
C22          O23   1.261       .  A
C22         C340   1.493       .  S
Ni24        O725   1.912       .  S
Ni24        O726   1.940       .  S
Ni25        O740   1.958   1_545  S
Ni25        O363   1.842   1_554  S
Ni25        O737   1.923   1_545  S
O27          C48   1.267       .  A
O27        Ni753   1.880       .  S
O28          C37   1.259   1_565  A
O28         Ni51   1.843   1_565  S
O29         Ni33   1.868       .  S
O29         Ni51   1.840       .  S
O29        Ni765   1.950   1_545  S
O29          H52   0.966       .  S
C30          O47   1.297       .  A
C30          O39   1.281       .  A
C30         C242   1.486       .  S
O31          C37   1.272   1_565  A
O31        Ni770   1.919       .  S
O32          C34   1.273   1_565  A
O32        Ni770   1.927       .  S
Ni33         O36   1.956       .  S
Ni33        O747   1.880       .  S
Ni33        O758   1.899   1_545  S
C34          O44   1.265       .  A
C34          C92   1.476       .  S
O35          C41   1.275       .  A
O35         Ni51   1.905       .  S
O36          C41   1.285       .  A
C37         C337   1.492       .  S
O38          C40   1.263       .  A
O38        Ni753   1.899       .  S
O39         Ni50   1.918       .  S
C40          O46   1.276       .  A
C40         C190   1.483       .  S
C41         C138   1.472       .  S
H42          O43   0.966       .  S
O43         Ni45   1.896       .  S
O43         Ni50   1.894       .  S
O43        Ni771   1.924       .  S
O44        Ni765   1.917   1_545  S
Ni45         O49   1.941       .  S
Ni45         O47   1.975       .  S
Ni45        O764   1.916       .  S
Ni45        O749   1.950       .  S
O46        Ni771   1.964       .  S
C48          O49   1.263       .  A
C48         C349   1.504       .  S
Ni50        O751   1.920       .  S
Ni50        O752   1.926       .  S
Ni51        O766   1.965   1_545  S
Ni51        O763   1.923   1_545  S
O53          C74   1.279       .  A
O53         Ni59   1.965       .  S
O54          C63   1.275       .  A
O54         Ni77   1.934       .  S
O55         Ni59   1.888       .  S
O55         Ni71   1.894       .  S
O55        Ni437   1.910   1_554  S
O55          H78   0.965       .  S
C56          O65   1.277       .  A
C56         O433   1.264       .  A
C56         C264   1.488       .  S
O57          C63   1.276       .  A
O57         Ni76   1.952       .  S
O58          C60   1.264       .  A
O58         Ni76   1.875       .  S
Ni59         O62   1.928   1_545  S
Ni59         O64   1.898       .  S
C60         O430   1.280       .  A
C60        C1558   1.440       .  S
O61          C67   1.265   1_545  A
O61         Ni77   1.902       .  S
O62         C427   1.282   1_554  A
C63         C100   1.509       .  S
O64         C426   1.272       .  A
O65         Ni76   1.961       .  S
C66          O72   1.289       .  A
C66         O424   1.272       .  A
C66         C368   1.483       .  S
C67         O422   1.282       .  A
C67         C932   1.453       .  S
H68          O69   0.966       .  S
O69         Ni77   1.939       .  S
O69         Ni76   1.930       .  S
O69        Ni431   1.946       .  S
O70         C420   1.280   1_554  A
O70         Ni71   1.949       .  S
Ni71         O75   1.923       .  S
Ni71         O73   1.905       .  S
Ni71        O429   1.945   1_554  S
O72         Ni77   1.965       .  S
O73         C416   1.264       .  A
C74          O75   1.273       .  A
C74          C89   1.507       .  S
Ni77        O415   1.911       .  S
O79         C100   1.277       .  A
O79         Ni85   1.960       .  S
O80          C89   1.271       .  A
O80        Ni103   1.926       .  S
O81         Ni85   1.886       .  S
O81        Ni103   1.909       .  S
O81         Ni97   1.890       .  S
O81         H104   0.965       .  S
C82          O99   1.264       .  A
C82          O91   1.278       .  A
C82         C290   1.484       .  S
O83          C89   1.277       .  A
O83        Ni102   1.957       .  S
O84          C86   1.265       .  A
O84        Ni102   1.878       .  S
Ni85         O88   1.929       .  S
Ni85         O90   1.893       .  S
C86          O96   1.284       .  A
C86        C1584   1.448       .  S
O87          C93   1.263   1_545  A
O87        Ni103   1.896       .  S
O88          C93   1.283   1_545  A
O90          C92   1.269       .  A
O91        Ni102   1.958       .  S
C92          O98   1.285       .  A
C93         C958   1.448       .  S
H94          O95   0.966       .  S
O95        Ni103   1.934       .  S
O95         Ni97   1.945       .  S
O95        Ni102   1.925       .  S
O96         Ni97   1.958       .  S
Ni97        O101   1.933       .  S
Ni97         O99   1.902       .  S
O98        Ni103   1.955       .  S
C100        O101   1.278       .  A
O105        C126   1.256       .  A
O105       Ni111   1.878       .  S
O106        C115   1.287       .  A
O106       Ni129   1.956       .  S
O107       Ni111   1.931       .  S
O107       Ni123   1.943       .  S
O107       Ni489   1.932       .  S
O107        H130   0.966       .  S
C108        O125   1.277       .  A
C108        O477   1.276       .  A
C108       C1240   1.458   1_545  S
O109        C115   1.274       .  A
O109       Ni128   1.935       .  S
O110        C112   1.274   1_554  A
O110       Ni128   1.907       .  S
Ni111       O114   1.888       .  S
Ni111       O116   1.896       .  S
C112        O482   1.278       .  A
O113        C119   1.285   1_554  A
O113       Ni129   1.929       .  S
O114        C479   1.252       .  A
C115        C152   1.506       .  S
O116        C118   1.275       .  A
O117        C468   1.276   1_554  A
O117       Ni128   1.922       .  S
C118        O484   1.275       .  A
C118       C1500   1.440   1_455  S
C119        O474   1.252       .  A
C119        C268   1.457   1_556  S
H120        O121   0.965       .  S
O121       Ni129   1.904       .  S
O121       Ni128   1.893       .  S
O121       Ni483   1.904   1_554  S
O122        C472   1.278       .  A
O122       Ni123   1.932       .  S
Ni123       O127   1.944       .  S
Ni123       O125   1.907       .  S
Ni123       O481   1.904       .  S
O124        C478   1.275   1_554  A
O124       Ni129   1.931       .  S
C126        O127   1.277       .  A
C126        C141   1.471       .  S
Ni129       O467   1.931   1_554  S
O131        C152   1.267       .  A
O131       Ni137   1.925       .  S
O132        C141   1.275       .  A
O132       Ni155   1.911       .  S
O133       Ni137   1.925       .  S
O133       Ni155   1.949       .  S
O133       Ni149   1.950       .  S
O133        H156   0.966       .  S
C134        O151   1.281       .  A
C134        O143   1.272       .  A
C134        C906   1.447   1_545  S
O135        C141   1.267       .  A
O135       Ni154   1.921       .  S
O136        C138   1.271       .  A
O136       Ni154   1.899       .  S
Ni137       O140   1.915       .  S
Ni137       O142   1.899       .  S
C138        O148   1.278       .  A
O139        C145   1.273       .  A
O139       Ni155   1.934       .  S
O140        C145   1.258       .  A
O142        C144   1.277       .  A
O143       Ni154   1.899       .  S
C144        O150   1.275       .  A
C144       C1526   1.448   1_455  S
C145        C294   1.489       .  S
H146        O147   0.966       .  S
O147       Ni155   1.887       .  S
O147       Ni149   1.907       .  S
O147       Ni154   1.896       .  S
O148       Ni149   1.941       .  S
Ni149       O153   1.961       .  S
Ni149       O151   1.914       .  S
O150       Ni155   1.936       .  S
C152        O153   1.283       .  A
O157        C178   1.257       .  A
O157       Ni163   1.897       .  S
O158        C167   1.280       .  A
O158       Ni181   1.939       .  S
O159       Ni163   1.925       .  S
O159       Ni175   1.947       .  S
O159       Ni541   1.972   1_554  S
O159        H182   0.966       .  S
C160        O177   1.277   1_556  A
C160        O529   1.275       .  A
C160       C1188   1.458       .  S
O161        C167   1.268       .  A
O161       Ni180   1.924       .  S
O162        C164   1.269       .  A
O162       Ni180   1.898       .  S
Ni163       O166   1.866       .  S
Ni163       O168   1.908       .  S
C164        O534   1.281       .  A
O165        C171   1.277       .  A
O165       Ni181   1.951       .  S
O166        C531   1.256   1_554  A
C167        C204   1.488       .  S
O168        C170   1.275       .  A
O169        C520   1.275       .  A
O169       Ni180   1.914       .  S
C170        O536   1.272   1_554  A
C170       C2022   1.443   1_455  S
C171        O526   1.257       .  A
C171        C635   1.482       .  S
H172        O173   0.966       .  S
O173       Ni181   1.904       .  S
O173       Ni180   1.893       .  S
O173       Ni535   1.913       .  S
O174        C524   1.280   1_554  A
O174       Ni175   1.957       .  S
Ni175       O179   1.951       .  S
Ni175       O177   1.913       .  S
Ni175       O533   1.913   1_554  S
O176        C530   1.272       .  A
O176       Ni181   1.921       .  S
C178        O179   1.278       .  A
C178        C193   1.488       .  S
Ni181       O519   1.972       .  S
O183        C204   1.264       .  A
O183       Ni189   1.918       .  S
O184        C193   1.283       .  A
O184       Ni207   1.939       .  S
O185       Ni189   1.927       .  S
O185       Ni207   1.949       .  S
O185       Ni201   1.917       .  S
O185        H208   0.966       .  S
C186        O203   1.279       .  A
C186        O195   1.274       .  A
C186        C854   1.444       .  S
O187        C193   1.268       .  A
O187       Ni206   1.923       .  S
O188        C190   1.271       .  A
O188       Ni206   1.899       .  S
Ni189       O192   1.901       .  S
Ni189       O194   1.918       .  S
C190        O200   1.281       .  A
O191        C197   1.278       .  A
O191       Ni207   1.934       .  S
O192        C197   1.262       .  A
O194        C196   1.272       .  A
O195       Ni206   1.910       .  S
C196        O202   1.272       .  A
C196       C1688   1.457   1_455  S
C197        C301   1.475       .  S
H198        O199   0.966       .  S
O199       Ni207   1.902       .  S
O199       Ni201   1.913       .  S
O199       Ni206   1.891       .  S
O200       Ni201   1.957       .  S
Ni201       O205   1.947       .  S
Ni201       O203   1.902       .  S
O202       Ni207   1.924       .  S
C204        O205   1.279       .  A
O209        C230   1.261       .  A
O209       Ni215   1.905       .  S
O210        C219   1.290       .  A
O210       Ni233   1.942       .  S
O211       Ni215   1.883       .  S
O211       Ni227   1.902       .  S
O211       Ni593   1.987       .  S
O211        H234   0.966       .  S
C212        O229   1.283       .  A
C212        O581   1.260       .  A
C212        C787   1.453       .  S
O213        C219   1.276       .  A
O213       Ni232   1.925       .  S
O214        C576   1.267       .  A
O214       Ni232   1.907       .  S
Ni215       O218   1.891       .  S
Ni215       O220   1.944       .  S
C216        O226   1.281       .  A
C216        O574   1.267       .  A
O217        C223   1.278       .  A
O217       Ni233   2.016       .  S
O218        C583   1.245       .  A
C219        C256   1.487       .  S
O220        C222   1.276       .  A
O221        C572   1.260   1_554  A
O221       Ni232   1.904       .  S
C222        O588   1.260       .  A
C222       C1970   1.443       .  S
C223        O578   1.245       .  A
C223        C634   1.503       .  S
H224        O225   0.967       .  S
O225       Ni233   1.903       .  S
O225       Ni232   1.878       .  S
O225       Ni587   1.948   1_554  S
O226       Ni227   1.986       .  S
Ni227       O231   1.973       .  S
Ni227       O229   1.955       .  S
Ni227       O585   1.948       .  S
O228        C582   1.260       .  A
O228       Ni233   1.879       .  S
C230        O231   1.292       .  A
C230        C245   1.494       .  S
Ni233       O571   1.987   1_554  S
O235        C256   1.260       .  A
O235       Ni241   1.901       .  S
O236        C245   1.296       .  A
O236       Ni259   1.960       .  S
O237       Ni241   1.883       .  S
O237       Ni259   1.976       .  S
O237       Ni253   1.900       .  S
O237        H260   0.966       .  S
C238        O255   1.282       .  A
C238        O247   1.259       .  A
C238        C813   1.449       .  S
O239        C245   1.272       .  A
O239       Ni258   1.916       .  S
O240        C242   1.266       .  A
O240       Ni258   1.907       .  S
Ni241       O244   1.887       .  S
Ni241       O246   1.945       .  S
C242        O252   1.279       .  A
O243        C249   1.280       .  A
O243       Ni259   2.004       .  S
O244        C249   1.246       .  A
O246        C248   1.276       .  A
O247       Ni258   1.898       .  S
C248        O254   1.271       .  A
C248       C1636   1.457       .  S
C249        C300   1.495       .  S
H250        O251   0.967       .  S
O251       Ni259   1.903       .  S
O251       Ni253   1.947       .  S
O251       Ni258   1.886       .  S
O252       Ni253   1.984       .  S
Ni253       O257   1.965       .  S
Ni253       O255   1.951       .  S
O254       Ni259   1.906       .  S
C256        O257   1.287       .  A
O261        C282   1.270       .  A
O261       Ni267   1.940       .  S
O262        C271   1.266       .  A
O262       Ni285   1.848       .  S
O263       Ni267   1.887       .  S
O263       Ni645   1.853   1_655  S
O263      Ni1719   1.899       .  S
O263        H286   0.966   1_655  S
C264        O281   1.256       .  A
C264        O633   1.287       .  A
O265        C271   1.279       .  A
O265      Ni1724   1.919   1_455  S
O266        C268   1.241       .  A
O266      Ni1724   1.839   1_455  S
Ni267       O270   1.959   1_655  S
Ni267      O1712   1.877       .  S
C268        O638   1.295   1_454  A
O269        C275   1.278   1_554  A
O269       Ni285   1.904       .  S
O270        C635   1.282       .  A
C271        C325   1.490       .  S
O272        C274   1.262       .  A
O272      Ni1707   1.877       .  S
O273        C624   1.287       .  A
O273       Ni284   1.993       .  S
C274        O640   1.278       .  A
C274        C583   1.503       .  S
C275        O630   1.282       .  A
C275        C531   1.482       .  S
H276        O277   0.966       .  S
O277       Ni284   1.896       .  S
O277      Ni1725   1.925       .  S
O277       Ni639   1.883       .  S
O278        C628   1.295   1_655  A
O278      Ni1719   1.998       .  S
Ni279       O281   1.890       .  S
Ni279      O1718   1.998       .  S
Ni279      O1723   1.864       .  S
Ni279      O1703   1.899       .  S
Ni279       O637   1.883       .  S
O280        C634   1.278       .  A
O280      Ni1725   1.988       .  S
C282        O283   1.269       .  A
C282        C316   1.481       .  S
O283      Ni1719   1.864       .  S
Ni284      O1705   1.919       .  S
Ni284      O1706   1.839       .  S
Ni285      O1720   1.988   1_455  S
Ni285       O623   1.854   1_454  S
Ni285      O1717   1.925   1_455  S
O287        C308   1.254       .  A
O287      Ni1733   1.879       .  S
O288        C297   1.253       .  A
O288      Ni1751   1.904       .  S
O289       Ni293   1.925   1_455  S
O289       Ni311   1.881       .  S
O289      Ni1745   1.966   1_455  S
O289        H312   0.965       .  S
C290        O307   1.258       .  A
C290        O299   1.283       .  A
O291        C297   1.265       .  A
O291       Ni310   1.912       .  S
O292        C294   1.266       .  A
O292      Ni1750   1.909   1_455  S
Ni293       O296   1.915   1_655  S
Ni293      O1727   1.879       .  S
Ni293      O1738   1.884       .  S
C294        O304   1.290       .  A
O295        C301   1.279       .  A
O295       Ni311   1.932       .  S
O296        C301   1.271       .  A
C297        C313   1.469       .  S
O298        C300   1.268       .  A
O298      Ni1733   1.884       .  S
O299       Ni310   1.975       .  S
C300        O306   1.274       .  A
H302        O303   0.963       .  S
O303       Ni305   1.858       .  S
O303       Ni310   1.942       .  S
O303      Ni1751   1.976       .  S
O304      Ni1745   1.974   1_455  S
Ni305       O309   1.903       .  S
Ni305       O307   1.896       .  S
Ni305      O1744   1.974       .  S
Ni305      O1729   1.966       .  S
O306      Ni1751   1.967       .  S
C308        O309   1.243       .  A
C308        C328   1.460       .  S
Ni310      O1732   1.909       .  S
Ni311      O1728   1.904       .  S
Ni311      O1746   1.967   1_455  S
Ni311      O1743   1.976   1_455  S
C313        C318   1.432       .  A
C313       C1754   1.421       .  A
C314        C315   1.398       .  A
C314       C1753   1.421       .  A
C314        H323   1.080       .  S
C315        C316   1.400       .  A
C315        S319   1.796       .  S
C316       C1757   1.397       .  A
C317        C318   1.402       .  A
C317       C1756   1.397       .  A
C317        H324   1.084       .  S
C318        S320   1.808       .  S
S319        H322   1.408       .  S
S320        H321   1.406       .  S
C325        C330   1.401       .  A
C325       C1766   1.397       .  A
C326        C327   1.407       .  A
C326       C1765   1.397       .  A
C326        H335   1.083       .  S
C327        C328   1.427       .  A
C327        S331   1.817       .  S
C328       C1769   1.423       .  A
C329        C330   1.401       .  A
C329       C1768   1.423       .  A
C329        H336   1.081       .  S
C330        S332   1.796       .  S
S331        H334   1.408       .  S
S332        H333   1.408       .  S
C337        C342   1.420       .  A
C337       C1058   1.403       .  A
C338        C339   1.411       .  A
C338       C1057   1.403       .  A
C338        H347   1.082       .  S
C339        C340   1.419       .  A
C339        S343   1.795       .  S
C340        C341   1.402       .  A
C341       C1062   1.407       .  A
C341        H348   1.082       .  S
C342       C1061   1.407       .  A
C342        S344   1.792       .  S
S343        H346   1.408       .  S
S344        H345   1.406       .  S
C349        C350   1.417       .  A
C349       C1074   1.399       .  A
C350        C351   1.414       .  A
C350        H359   1.081       .  S
C351       C1072   1.406       .  A
C351        S355   1.796       .  S
C352        C353   1.414       .  A
C352       C1071   1.406       .  A
C353        C354   1.406       .  A
C353        H360   1.080       .  S
C354       C1069   1.400       .  A
C354        S356   1.788       .  S
S355        H358   1.404       .  S
S356        H357   1.409       .  S
O361        C382   1.268       .  A
O361      Ni1087   1.885       .  S
O362        C371   1.257   1_565  A
O362       Ni385   1.839   1_565  S
O363       Ni367   1.874       .  S
O363      Ni1099   1.955   1_545  S
O363        H386   0.965       .  S
C364        O381   1.296   1_554  A
C364        C576   1.486       .  S
O365        C371   1.270   1_565  A
O365      Ni1104   1.912       .  S
O366        C368   1.277   1_565  A
O366      Ni1104   1.939       .  S
Ni367      O1081   1.885       .  S
Ni367       O370   1.958       .  S
Ni367      O1092   1.905   1_545  S
O369        C375   1.274       .  A
O369       Ni385   1.907       .  S
C371        C712   1.486       .  S
O372        C374   1.266       .  A
O372      Ni1087   1.905       .  S
O373       Ni384   1.913       .  S
C374        C524   1.483       .  S
C375        C472   1.474       .  S
H376        O377   0.966       .  S
O377      Ni1105   1.923       .  S
O377       Ni384   1.899       .  S
O378      Ni1099   1.920   1_545  S
Ni379      O1098   1.920       .  S
Ni379       O383   1.932       .  S
Ni379       O381   1.975       .  S
Ni379      O1083   1.955       .  S
O380      Ni1105   1.958       .  S
C382        O383   1.261       .  A
C382        C700   1.493       .  S
Ni384      O1085   1.912       .  S
Ni384      O1086   1.940       .  S
Ni385      O1100   1.958   1_545  S
Ni385      O1097   1.923   1_545  S
O387        C408   1.267       .  A
O387      Ni1113   1.880       .  S
O388        C397   1.258   1_565  A
O388       Ni411   1.843   1_565  S
O389       Ni393   1.868       .  S
O389       Ni411   1.841       .  S
O389      Ni1125   1.950   1_545  S
O389        H412   0.966       .  S
C390        O407   1.297       .  A
C390        O399   1.281       .  A
C390        C602   1.486       .  S
O391        C397   1.272   1_565  A
O391      Ni1130   1.920       .  S
O392        C394   1.273   1_565  A
O392      Ni1130   1.927       .  S
Ni393      O1107   1.880       .  S
Ni393       O396   1.956       .  S
Ni393      O1118   1.899   1_545  S
C394        O404   1.264       .  A
C394        C452   1.475       .  S
O395        C401   1.274       .  A
O395       Ni411   1.904       .  S
O396        C401   1.284       .  A
C397        C697   1.492       .  S
O398        C400   1.263       .  A
O398      Ni1113   1.899       .  S
O399       Ni410   1.917       .  S
C400        O406   1.276       .  A
C400        C550   1.483       .  S
C401        C498   1.471       .  S
H402        O403   0.966       .  S
O403      Ni1131   1.923       .  S
O403       Ni405   1.895       .  S
O403       Ni410   1.894       .  S
O404      Ni1125   1.916   1_545  S
Ni405      O1124   1.916       .  S
Ni405       O409   1.942       .  S
Ni405       O407   1.975       .  S
Ni405      O1109   1.949       .  S
O406      Ni1131   1.965       .  S
C408        O409   1.263       .  A
C408        C709   1.504       .  S
Ni410      O1111   1.920       .  S
Ni410      O1112   1.926       .  S
Ni411      O1126   1.964   1_545  S
Ni411      O1123   1.923   1_545  S
O413        C434   1.279       .  A
O413       Ni419   1.964       .  S
O414        C423   1.275       .  A
O414       Ni437   1.933       .  S
O415       Ni419   1.889       .  S
O415       Ni431   1.894       .  S
O415        H438   0.965       .  S
C416        O425   1.277   1_554  A
C416        C624   1.488       .  S
O417        C423   1.276       .  A
O417       Ni436   1.951       .  S
O418        C420   1.264       .  A
O418       Ni436   1.875       .  S
Ni419       O422   1.927   1_545  S
Ni419       O424   1.898       .  S
C420       C1918   1.440       .  S
O421        C427   1.265   1_545  A
O421       Ni437   1.902       .  S
C423        C460   1.508       .  S
O425       Ni436   1.961       .  S
C426        O432   1.289   1_554  A
C427       C1292   1.453       .  S
H428        O429   0.966       .  S
O429       Ni437   1.939       .  S
O429       Ni436   1.930       .  S
O430       Ni431   1.949       .  S
Ni431       O435   1.924       .  S
Ni431       O433   1.906       .  S
O432       Ni437   1.965       .  S
C434        O435   1.273       .  A
C434        C449   1.507       .  S
O439        C460   1.276       .  A
O439       Ni445   1.958       .  S
O440        C449   1.271       .  A
O440       Ni463   1.926       .  S
O441       Ni445   1.888       .  S
O441       Ni463   1.910       .  S
O441       Ni457   1.890       .  S
O441        H464   0.965       .  S
C442        O459   1.264       .  A
C442        O451   1.277       .  A
C442        C650   1.485       .  S
O443        C449   1.277       .  A
O443       Ni462   1.956       .  S
O444        C446   1.266       .  A
O444       Ni462   1.878       .  S
Ni445       O448   1.928       .  S
Ni445       O450   1.891       .  S
C446        O456   1.284       .  A
C446       C1944   1.448       .  S
O447        C453   1.263   1_545  A
O447       Ni463   1.897       .  S
O448        C453   1.282   1_545  A
O450        C452   1.269       .  A
O451       Ni462   1.958       .  S
C452        O458   1.285       .  A
C453       C1318   1.448       .  S
H454        O455   0.966       .  S
O455       Ni463   1.934       .  S
O455       Ni457   1.946       .  S
O455       Ni462   1.926       .  S
O456       Ni457   1.958       .  S
Ni457       O461   1.933       .  S
Ni457       O459   1.903       .  S
O458       Ni463   1.956       .  S
C460        O461   1.278       .  A
O465        C486   1.256       .  A
O465       Ni471   1.878       .  S
O466        C475   1.287       .  A
O466       Ni489   1.956       .  S
O467       Ni471   1.931       .  S
O467       Ni483   1.943       .  S
O467        H490   0.966       .  S
C468        O485   1.277       .  A
C468        C880   1.458   1_545  S
O469        C475   1.274       .  A
O469       Ni488   1.935       .  S
O470        C472   1.274       .  A
O470       Ni488   1.907       .  S
Ni471       O474   1.888       .  S
Ni471       O476   1.896       .  S
O473        C479   1.285       .  A
O473       Ni489   1.929       .  S
C475        C512   1.507       .  S
O476        C478   1.275       .  A
O477       Ni488   1.922       .  S
C478       C1860   1.440   1_455  S
C479        C628   1.457       .  S
H480        O481   0.965       .  S
O481       Ni489   1.904       .  S
O481       Ni488   1.893       .  S
O482       Ni483   1.933       .  S
Ni483       O487   1.943       .  S
Ni483       O485   1.907       .  S
O484       Ni489   1.931       .  S
C486        O487   1.277       .  A
C486        C501   1.470       .  S
O491        C512   1.267       .  A
O491       Ni497   1.925       .  S
O492        C501   1.275       .  A
O492       Ni515   1.911       .  S
O493       Ni497   1.925       .  S
O493       Ni515   1.949       .  S
O493       Ni509   1.950       .  S
O493        H516   0.966       .  S
C494        O511   1.281       .  A
C494        O503   1.272       .  A
C494       C1266   1.445   1_545  S
O495        C501   1.266       .  A
O495       Ni514   1.921       .  S
O496        C498   1.270       .  A
O496       Ni514   1.899       .  S
Ni497       O500   1.916       .  S
Ni497       O502   1.899       .  S
C498        O508   1.278       .  A
O499        C505   1.273       .  A
O499       Ni515   1.934       .  S
O500        C505   1.258       .  A
O502        C504   1.276       .  A
O503       Ni514   1.899       .  S
C504        O510   1.275       .  A
C504       C1886   1.448   1_455  S
C505        C654   1.489       .  S
H506        O507   0.966       .  S
O507       Ni515   1.887       .  S
O507       Ni509   1.908       .  S
O507       Ni514   1.897       .  S
O508       Ni509   1.940       .  S
Ni509       O513   1.961       .  S
Ni509       O511   1.914       .  S
O510       Ni515   1.936       .  S
C512        O513   1.283       .  A
O517        C538   1.257       .  A
O517       Ni523   1.897       .  S
O518        C527   1.280       .  A
O518       Ni541   1.939       .  S
O519       Ni523   1.925       .  S
O519       Ni535   1.947       .  S
O519        H542   0.966       .  S
C520        O537   1.277       .  A
C520        C828   1.458       .  S
O521        C527   1.268       .  A
O521       Ni540   1.924       .  S
O522        C524   1.269       .  A
O522       Ni540   1.898       .  S
Ni523       O526   1.867       .  S
Ni523       O528   1.908       .  S
O525        C531   1.277       .  A
O525       Ni541   1.951       .  S
C527        C564   1.488       .  S
O528        C530   1.275       .  A
O529       Ni540   1.915       .  S
C530       C1662   1.443   1_455  S
H532        O533   0.966       .  S
O533       Ni541   1.904       .  S
O533       Ni540   1.893       .  S
O534       Ni535   1.956       .  S
Ni535       O539   1.952       .  S
Ni535       O537   1.914       .  S
O536       Ni541   1.921       .  S
C538        O539   1.278       .  A
C538        C553   1.488       .  S
O543        C564   1.264       .  A
O543       Ni549   1.918       .  S
O544        C553   1.283       .  A
O544       Ni567   1.939       .  S
O545       Ni549   1.927       .  S
O545       Ni567   1.948       .  S
O545       Ni561   1.918       .  S
O545        H568   0.966       .  S
C546        O563   1.279       .  A
C546        O555   1.274       .  A
C546       C1214   1.445       .  S
O547        C553   1.268       .  A
O547       Ni566   1.923       .  S
O548        C550   1.271       .  A
O548       Ni566   1.899       .  S
Ni549       O552   1.902       .  S
Ni549       O554   1.917       .  S
C550        O560   1.281       .  A
O551        C557   1.278       .  A
O551       Ni567   1.935       .  S
O552        C557   1.262       .  A
O554        C556   1.272       .  A
O555       Ni566   1.911       .  S
C556        O562   1.272       .  A
C556       C2048   1.457   1_455  S
C557        C661   1.476       .  S
H558        O559   0.966       .  S
O559       Ni567   1.902       .  S
O559       Ni561   1.912       .  S
O559       Ni566   1.891       .  S
O560       Ni561   1.957       .  S
Ni561       O565   1.947       .  S
Ni561       O563   1.903       .  S
O562       Ni567   1.924       .  S
C564        O565   1.279       .  A
O569        C590   1.261       .  A
O569       Ni575   1.905       .  S
O570        C579   1.290       .  A
O570       Ni593   1.942       .  S
O571       Ni575   1.883       .  S
O571       Ni587   1.902       .  S
O571        H594   0.966       .  S
C572        O589   1.283       .  A
C572       C1147   1.453       .  S
O573        C579   1.276       .  A
O573       Ni592   1.924       .  S
O574       Ni592   1.907       .  S
Ni575       O578   1.891   1_556  S
Ni575       O580   1.944       .  S
C576        O586   1.281   1_554  A
O577        C583   1.278       .  A
O577       Ni593   2.017       .  S
C579        C616   1.487       .  S
O580        C582   1.276   1_556  A
O581       Ni592   1.904       .  S
C582       C1610   1.443       .  S
H584        O585   0.967       .  S
O585       Ni593   1.903       .  S
O585       Ni592   1.878       .  S
O586       Ni587   1.987       .  S
Ni587       O591   1.973       .  S
Ni587       O589   1.955       .  S
O588       Ni593   1.878       .  S
C590        O591   1.292       .  A
C590        C605   1.494       .  S
O595        C616   1.260       .  A
O595       Ni601   1.901       .  S
O596        C605   1.296       .  A
O596       Ni619   1.959       .  S
O597       Ni601   1.883       .  S
O597       Ni619   1.976       .  S
O597       Ni613   1.900       .  S
O597        H620   0.966       .  S
C598        O615   1.282       .  A
C598        O607   1.259       .  A
C598       C1173   1.448       .  S
O599        C605   1.272       .  A
O599       Ni618   1.915       .  S
O600        C602   1.266       .  A
O600       Ni618   1.907       .  S
Ni601       O604   1.887       .  S
Ni601       O606   1.945       .  S
C602        O612   1.279       .  A
O603        C609   1.280       .  A
O603       Ni619   2.004       .  S
O604        C609   1.246       .  A
O606        C608   1.276       .  A
O607       Ni618   1.898       .  S
C608        O614   1.271       .  A
C608       C1996   1.457       .  S
C609        C660   1.495       .  S
H610        O611   0.967       .  S
O611       Ni619   1.903       .  S
O611       Ni613   1.947       .  S
O611       Ni618   1.885       .  S
O612       Ni613   1.983       .  S
Ni613       O617   1.965       .  S
Ni613       O615   1.950       .  S
O614       Ni619   1.906       .  S
C616        O617   1.287       .  A
O621        C642   1.270       .  A
O621       Ni627   1.940       .  S
O622        C631   1.266       .  A
O622       Ni645   1.848       .  S
O623       Ni627   1.887       .  S
O623      Ni2079   1.899       .  S
O623        H646   0.966   1_655  S
C624        O641   1.255       .  A
O625        C631   1.279       .  A
O625      Ni2084   1.919   1_455  S
O626        C628   1.240       .  A
O626      Ni2084   1.840   1_455  S
Ni627       O630   1.959   1_655  S
Ni627      O2072   1.877       .  S
O629        C635   1.278       .  A
O629       Ni645   1.905       .  S
C631        C685   1.490       .  S
O632        C634   1.262   1_556  A
O632      Ni2067   1.877       .  S
O633       Ni644   1.994       .  S
H636        O637   0.966       .  S
O637      Ni2085   1.925       .  S
O637       Ni644   1.896       .  S
O638      Ni2079   1.998       .  S
Ni639      O2078   1.998   1_554  S
Ni639      O2083   1.864   1_554  S
Ni639       O641   1.890       .  S
Ni639      O2063   1.899   1_554  S
O640      Ni2085   1.988       .  S
C642        O643   1.269       .  A
C642        C676   1.481       .  S
O643      Ni2079   1.864       .  S
Ni644      O2065   1.919       .  S
Ni644      O2066   1.840       .  S
Ni645      O2080   1.988   1_455  S
Ni645      O2077   1.925   1_455  S
O647        C668   1.254       .  A
O647      Ni2093   1.879       .  S
O648        C657   1.253       .  A
O648      Ni2111   1.904       .  S
O649       Ni653   1.925   1_455  S
O649       Ni671   1.881       .  S
O649      Ni2105   1.966   1_455  S
O649        H672   0.965       .  S
C650        O667   1.258       .  A
C650        O659   1.283       .  A
O651        C657   1.265       .  A
O651       Ni670   1.912       .  S
O652        C654   1.266       .  A
O652      Ni2110   1.908   1_455  S
Ni653      O2087   1.879       .  S
Ni653       O656   1.916   1_655  S
Ni653      O2098   1.884       .  S
C654        O664   1.290       .  A
O655        C661   1.279       .  A
O655       Ni671   1.933       .  S
O656        C661   1.271       .  A
C657        C673   1.469       .  S
O658        C660   1.268       .  A
O658      Ni2093   1.884       .  S
O659       Ni670   1.975       .  S
C660        O666   1.274       .  A
H662        O663   0.963       .  S
O663      Ni2111   1.977       .  S
O663       Ni665   1.859       .  S
O663       Ni670   1.942       .  S
O664      Ni2105   1.973   1_455  S
Ni665      O2104   1.973       .  S
Ni665       O669   1.903       .  S
Ni665       O667   1.896       .  S
Ni665      O2089   1.966       .  S
O666      Ni2111   1.967       .  S
C668        O669   1.243       .  A
C668        C688   1.460       .  S
Ni670      O2092   1.908       .  S
Ni671      O2088   1.904       .  S
Ni671      O2106   1.967   1_455  S
Ni671      O2103   1.977   1_455  S
C673       C2114   1.421       .  A
C673        C678   1.432       .  A
C674       C2113   1.421       .  A
C674        C675   1.398       .  A
C674        H683   1.080       .  S
C675        C676   1.400       .  A
C675        S679   1.796       .  S
C676       C2117   1.397       .  A
C677       C2116   1.397       .  A
C677        C678   1.402       .  A
C677        H684   1.084       .  S
C678        S680   1.808       .  S
S679        H682   1.408       .  S
S680        H681   1.406       .  S
C685       C2126   1.397       .  A
C685        C690   1.401       .  A
C686       C2125   1.397       .  A
C686        C687   1.407       .  A
C686        H695   1.083       .  S
C687        C688   1.427       .  A
C687        S691   1.817       .  S
C688       C2129   1.423       .  A
C689       C2128   1.423       .  A
C689        C690   1.401       .  A
C689        H696   1.081       .  S
C690        S692   1.796       .  S
S691        H694   1.408       .  S
S692        H693   1.408       .  S
C697       C1418   1.403       .  A
C697        C702   1.419       .  A
C698       C1417   1.403       .  A
C698        C699   1.411       .  A
C698        H707   1.082       .  S
C699        C700   1.419       .  A
C699        S703   1.795       .  S
C700        C701   1.401       .  A
C701       C1422   1.407       .  A
C701        H708   1.082       .  S
C702       C1421   1.407       .  A
C702        S704   1.792       .  S
S703        H706   1.408       .  S
S704        H705   1.406       .  S
C709        C710   1.417       .  A
C709       C1434   1.399       .  A
C710        C711   1.414       .  A
C710        H719   1.081       .  S
C711       C1432   1.406       .  A
C711        S715   1.796       .  S
C712       C1431   1.406       .  A
C712        C713   1.415       .  A
C713        C714   1.406       .  A
C713        H720   1.080       .  S
C714       C1429   1.399       .  A
C714        S716   1.788       .  S
S715        H718   1.404       .  S
S716        H717   1.409       .  S
O721        C742   1.268   1_565  A
O722        C731   1.257       .  A
O722       Ni745   1.839       .  S
O723       Ni727   1.874       .  S
O723      Ni1105   1.842       .  S
O723        H746   0.965       .  S
C724        O741   1.296       .  A
C724       O1093   1.278       .  A
C724        C936   1.486       .  S
O725        C731   1.270       .  A
O726        C728   1.277       .  A
Ni727       O730   1.958       .  S
C728       O1098   1.263   1_554  A
C728       C1146   1.483       .  S
O729        C735   1.274   1_554  A
O729       Ni745   1.908       .  S
O730       C1095   1.286       .  A
C731       C1072   1.486       .  S
O732        C734   1.266       .  A
O733       C1084   1.278       .  A
O733       Ni744   1.913       .  S
C734       O1100   1.275       .  A
C734        C884   1.483       .  S
C735       O1090   1.286       .  A
C735        C832   1.474       .  S
H736        O737   0.966       .  S
O737      Ni1099   1.893   1_554  S
O737       Ni744   1.898       .  S
O738       C1088   1.263       .  A
Ni739       O743   1.933   1_565  S
Ni739       O741   1.975       .  S
Ni739      O1097   1.893       .  S
O740       C1094   1.275   1_554  A
C742        O743   1.261       .  A
C742       C1060   1.493       .  S
Ni745      O1083   1.842   1_554  S
O747        C768   1.267       .  A
O748        C757   1.258       .  A
O748       Ni771   1.842       .  S
O749       Ni753   1.867       .  S
O749       Ni771   1.841       .  S
O749        H772   0.966       .  S
C750        O767   1.297       .  A
C750        O759   1.280       .  A
C750        C962   1.485       .  S
O751        C757   1.272       .  A
O752        C754   1.273       .  A
Ni753       O756   1.956       .  S
C754        O764   1.264       .  A
C754        C812   1.475       .  S
O755        C761   1.274       .  A
O755       Ni771   1.905       .  S
O756        C761   1.284       .  A
C757       C1057   1.492       .  S
O758        C760   1.263       .  A
O759       Ni770   1.917       .  S
C760        O766   1.276       .  A
C760        C910   1.483       .  S
C761        C858   1.471       .  S
H762        O763   0.966       .  S
O763       Ni765   1.895       .  S
O763       Ni770   1.894       .  S
Ni765       O769   1.942   1_565  S
Ni765       O767   1.976       .  S
C768        O769   1.263       .  A
C768       C1069   1.504       .  S
O773        C794   1.279       .  A
O773       Ni779   1.964       .  S
O774        C783   1.275       .  A
O774       Ni797   1.932       .  S
O775       Ni779   1.889       .  S
O775      Ni1157   1.911   1_554  S
O775       Ni791   1.894       .  S
O775        H798   0.965       .  S
C776       O1153   1.264       .  A
C776        O785   1.277       .  A
C776        C984   1.488       .  S
O777        C783   1.276       .  A
O777       Ni796   1.951       .  S
O778        C780   1.264       .  A
O778       Ni796   1.875       .  S
Ni779       O782   1.928       .  S
Ni779       O784   1.898       .  S
C780       O1150   1.280       .  A
C780       C2278   1.440       .  S
O781        C787   1.265       .  A
O781       Ni797   1.902       .  S
O782       C1147   1.282   1_554  A
C783        C820   1.508       .  S
O784       C1146   1.272       .  A
O785       Ni796   1.961       .  S
C786       O1144   1.272       .  A
C786        O792   1.289       .  A
C786       C1088   1.483       .  S
C787       O1142   1.282       .  A
H788        O789   0.966       .  S
O789       Ni797   1.939       .  S
O789      Ni1151   1.945       .  S
O789       Ni796   1.930       .  S
O790       C1140   1.280   1_554  A
O790       Ni791   1.949       .  S
Ni791       O795   1.923       .  S
Ni791       O793   1.906       .  S
Ni791      O1149   1.946   1_554  S
O792       Ni797   1.965       .  S
O793       C1136   1.264       .  A
C794        O795   1.273       .  A
C794        C809   1.506       .  S
Ni797      O1135   1.910       .  S
O799        C820   1.276       .  A
O799       Ni805   1.958       .  S
O800        C809   1.271       .  A
O800       Ni823   1.926       .  S
O801       Ni805   1.888       .  S
O801       Ni823   1.910       .  S
O801       Ni817   1.890       .  S
O801        H824   0.965       .  S
C802        O819   1.264       .  A
C802        O811   1.277       .  A
C802       C1010   1.484       .  S
O803        C809   1.277       .  A
O803       Ni822   1.956       .  S
O804        C806   1.266       .  A
O804       Ni822   1.879       .  S
Ni805       O808   1.928       .  S
Ni805       O810   1.891       .  S
C806        O816   1.284       .  A
C806       C2304   1.449       .  S
O807        C813   1.263       .  A
O807       Ni823   1.897       .  S
O808        C813   1.282       .  A
O810        C812   1.269       .  A
O811       Ni822   1.958       .  S
C812        O818   1.284       .  A
H814        O815   0.966       .  S
O815       Ni823   1.934       .  S
O815       Ni817   1.946       .  S
O815       Ni822   1.927       .  S
O816       Ni817   1.958       .  S
Ni817       O821   1.933       .  S
Ni817       O819   1.903       .  S
O818       Ni823   1.955       .  S
C820        O821   1.278       .  A
O825        C846   1.256       .  A
O825       Ni831   1.878       .  S
O826        C835   1.287       .  A
O826       Ni849   1.956       .  S
O827       Ni831   1.931       .  S
O827      Ni1209   1.932       .  S
O827       Ni843   1.943       .  S
O827        H850   0.966       .  S
C828        O845   1.277       .  A
C828       O1197   1.277       .  A
O829        C835   1.274       .  A
O829       Ni848   1.936       .  S
O830        C832   1.274   1_554  A
O830       Ni848   1.907       .  S
Ni831       O834   1.888       .  S
Ni831       O836   1.896       .  S
C832       O1202   1.278       .  A
O833        C839   1.285   1_554  A
O833       Ni849   1.929       .  S
O834       C1199   1.252       .  A
C835        C872   1.506       .  S
O836        C838   1.275       .  A
O837       C1188   1.277   1_554  A
O837       Ni848   1.923       .  S
C838       O1204   1.275       .  A
C838       C2220   1.440   1_455  S
C839       O1194   1.252       .  A
C839        C988   1.457   1_556  S
H840        O841   0.965       .  S
O841       Ni849   1.904       .  S
O841      Ni1203   1.904   1_554  S
O841       Ni848   1.893       .  S
O842       C1192   1.278       .  A
O842       Ni843   1.933       .  S
Ni843       O847   1.943       .  S
Ni843       O845   1.907       .  S
Ni843      O1201   1.904       .  S
O844       C1198   1.275   1_554  A
O844       Ni849   1.931       .  S
C846        O847   1.277       .  A
C846        C861   1.470       .  S
Ni849      O1187   1.931   1_554  S
O851        C872   1.267       .  A
O851       Ni857   1.925       .  S
O852        C861   1.275       .  A
O852       Ni875   1.911       .  S
O853       Ni857   1.925       .  S
O853       Ni875   1.949       .  S
O853       Ni869   1.950       .  S
O853        H876   0.966       .  S
C854        O871   1.281       .  A
C854        O863   1.272       .  A
O855        C861   1.266       .  A
O855       Ni874   1.921       .  S
O856        C858   1.270       .  A
O856       Ni874   1.899       .  S
Ni857       O860   1.916       .  S
Ni857       O862   1.899       .  S
C858        O868   1.278       .  A
O859        C865   1.273       .  A
O859       Ni875   1.934       .  S
O860        C865   1.258       .  A
O862        C864   1.276       .  A
O863       Ni874   1.899       .  S
C864        O870   1.275       .  A
C864       C2246   1.449   1_455  S
C865       C1014   1.489       .  S
H866        O867   0.966       .  S
O867       Ni875   1.887       .  S
O867       Ni869   1.908       .  S
O867       Ni874   1.897       .  S
O868       Ni869   1.940       .  S
Ni869       O873   1.961       .  S
Ni869       O871   1.914       .  S
O870       Ni875   1.936       .  S
C872        O873   1.283       .  A
O877        C898   1.257       .  A
O877       Ni883   1.897       .  S
O878        C887   1.280       .  A
O878       Ni901   1.939       .  S
O879       Ni883   1.925       .  S
O879      Ni1261   1.972   1_554  S
O879       Ni895   1.947       .  S
O879        H902   0.966       .  S
C880        O897   1.277   1_556  A
C880       O1249   1.275       .  A
O881        C887   1.268       .  A
O881       Ni900   1.924       .  S
O882        C884   1.269       .  A
O882       Ni900   1.897       .  S
Ni883       O886   1.867       .  S
Ni883       O888   1.909       .  S
C884       O1254   1.280       .  A
O885        C891   1.277       .  A
O885       Ni901   1.951       .  S
O886       C1251   1.256   1_554  A
C887        C924   1.488       .  S
O888        C890   1.275       .  A
O889       C1240   1.275       .  A
O889       Ni900   1.915       .  S
C890       O1256   1.272   1_554  A
C890       C2742   1.444   1_455  S
C891       O1246   1.256       .  A
C891       C1355   1.482       .  S
H892        O893   0.966       .  S
O893       Ni901   1.903       .  S
O893      Ni1255   1.913       .  S
O893       Ni900   1.894       .  S
O894       C1244   1.281   1_554  A
O894       Ni895   1.956       .  S
Ni895       O899   1.954       .  S
Ni895       O897   1.914       .  S
Ni895      O1253   1.914   1_554  S
O896       C1250   1.272       .  A
O896       Ni901   1.922       .  S
C898        O899   1.278       .  A
C898        C913   1.489       .  S
Ni901      O1239   1.973       .  S
O903        C924   1.264       .  A
O903       Ni909   1.918       .  S
O904        C913   1.284       .  A
O904       Ni927   1.939       .  S
O905       Ni909   1.924       .  S
O905       Ni927   1.945       .  S
O905       Ni921   1.918       .  S
O905        H928   0.966       .  S
C906        O923   1.280       .  A
C906        O915   1.274       .  A
O907        C913   1.269       .  A
O907       Ni926   1.924       .  S
O908        C910   1.273       .  A
O908       Ni926   1.900       .  S
Ni909       O912   1.903       .  S
Ni909       O914   1.916       .  S
C910        O920   1.282       .  A
O911        C917   1.279       .  A
O911       Ni927   1.935       .  S
O912        C917   1.263       .  A
O914        C916   1.272       .  A
O915       Ni926   1.909       .  S
C916        O922   1.272       .  A
C916       C2408   1.456   1_455  S
C917       C1021   1.476       .  S
H918        O919   0.966       .  S
O919       Ni927   1.903       .  S
O919       Ni921   1.908       .  S
O919       Ni926   1.888       .  S
O920       Ni921   1.955       .  S
Ni921       O925   1.948       .  S
Ni921       O923   1.905       .  S
O922       Ni927   1.924       .  S
C924        O925   1.280       .  A
O929        C950   1.261       .  A
O929       Ni935   1.905       .  S
O930        C939   1.290       .  A
O930       Ni953   1.942       .  S
O931       Ni935   1.883       .  S
O931      Ni1313   1.987       .  S
O931       Ni947   1.902       .  S
O931        H954   0.966       .  S
C932        O949   1.283       .  A
C932       O1301   1.260       .  A
O933        C939   1.276       .  A
O933       Ni952   1.925       .  S
O934       C1296   1.267       .  A
O934       Ni952   1.907       .  S
Ni935       O938   1.891       .  S
Ni935       O940   1.944       .  S
C936       O1294   1.267       .  A
C936        O946   1.281       .  A
O937        C943   1.278       .  A
O937       Ni953   2.017       .  S
O938       C1303   1.245       .  A
C939        C976   1.487       .  S
O940        C942   1.276       .  A
O941       C1292   1.260   1_554  A
O941       Ni952   1.904       .  S
C942       O1308   1.260       .  A
C942       C2690   1.444       .  S
C943       O1298   1.245       .  A
C943       C1354   1.503       .  S
H944        O945   0.967       .  S
O945       Ni953   1.904       .  S
O945      Ni1307   1.948   1_554  S
O945       Ni952   1.878       .  S
O946       Ni947   1.987       .  S
Ni947       O951   1.973       .  S
Ni947       O949   1.955       .  S
Ni947      O1305   1.948       .  S
O948       C1302   1.260       .  A
O948       Ni953   1.879       .  S
C950        O951   1.292       .  A
C950        C965   1.494       .  S
Ni953      O1291   1.987   1_554  S
O955        C976   1.260       .  A
O955       Ni961   1.901       .  S
O956        C965   1.296       .  A
O956       Ni979   1.959       .  S
O957       Ni961   1.883       .  S
O957       Ni979   1.977       .  S
O957       Ni973   1.900       .  S
O957        H980   0.966       .  S
C958        O975   1.282       .  A
C958        O967   1.260       .  A
O959        C965   1.272       .  A
O959       Ni978   1.915       .  S
O960        C962   1.266       .  A
O960       Ni978   1.907       .  S
Ni961       O964   1.887       .  S
Ni961       O966   1.944       .  S
C962        O972   1.278       .  A
O963        C969   1.280       .  A
O963       Ni979   2.004       .  S
O964        C969   1.246       .  A
O966        C968   1.276       .  A
O967       Ni978   1.898       .  S
C968        O974   1.271       .  A
C968       C2356   1.457       .  S
C969       C1020   1.495       .  S
H970        O971   0.967       .  S
O971       Ni979   1.903       .  S
O971       Ni973   1.946       .  S
O971       Ni978   1.885       .  S
O972       Ni973   1.982       .  S
Ni973       O977   1.966       .  S
Ni973       O975   1.949       .  S
O974       Ni979   1.905       .  S
C976        O977   1.287       .  A
O981       C1002   1.270       .  A
O981       Ni987   1.940       .  S
O982        C991   1.266       .  A
O982      Ni1005   1.848       .  S
O983       Ni987   1.887       .  S
O983      Ni1365   1.853   1_655  S
O983      Ni2439   1.899       .  S
O983       H1006   0.966   1_655  S
C984       O1001   1.255       .  A
C984       O1353   1.287       .  A
O985        C991   1.279       .  A
O985      Ni2444   1.919   1_455  S
O986        C988   1.241       .  A
O986      Ni2444   1.840   1_455  S
Ni987       O990   1.959   1_655  S
Ni987      O2432   1.877       .  S
C988       O1358   1.295   1_454  A
O989        C995   1.278   1_554  A
O989      Ni1005   1.905       .  S
O990       C1355   1.282       .  A
C991       C1045   1.490       .  S
O992        C994   1.262       .  A
O992      Ni2427   1.877       .  S
O993       C1344   1.287       .  A
O993      Ni1004   1.994       .  S
C994       O1360   1.278       .  A
C994       C1303   1.503       .  S
C995       O1350   1.282       .  A
C995       C1251   1.482       .  S
H996        O997   0.966       .  S
O997      Ni2445   1.925       .  S
O997      Ni1359   1.883       .  S
O997      Ni1004   1.896       .  S
O998       C1348   1.295   1_655  A
O998      Ni2439   1.997       .  S
Ni999      O2438   1.998       .  S
Ni999      O2443   1.864       .  S
Ni999      O1001   1.890       .  S
Ni999      O2423   1.899       .  S
Ni999      O1357   1.883       .  S
O1000      C1354   1.279       .  A
O1000     Ni2445   1.988       .  S
C1002      O1003   1.269       .  A
C1002      C1036   1.481       .  S
O1003     Ni2439   1.864       .  S
Ni1004     O2425   1.919       .  S
Ni1004     O2426   1.840       .  S
Ni1005     O2440   1.988   1_455  S
Ni1005     O1343   1.853   1_454  S
Ni1005     O2437   1.925   1_455  S
O1007      C1028   1.254       .  A
O1007     Ni2453   1.880       .  S
O1008      C1017   1.252       .  A
O1008     Ni2471   1.904       .  S
O1009     Ni1013   1.925   1_455  S
O1009     Ni1031   1.880       .  S
O1009     Ni2465   1.966   1_455  S
O1009      H1032   0.965       .  S
C1010      O1027   1.258       .  A
C1010      O1019   1.283       .  A
O1011      C1017   1.265       .  A
O1011     Ni1030   1.912       .  S
O1012      C1014   1.266       .  A
O1012     Ni2470   1.909   1_455  S
Ni1013     O2447   1.880       .  S
Ni1013     O1016   1.916   1_655  S
Ni1013     O2458   1.884       .  S
C1014      O1024   1.290       .  A
O1015      C1021   1.279       .  A
O1015     Ni1031   1.932       .  S
O1016      C1021   1.271       .  A
C1017      C1033   1.469       .  S
O1018      C1020   1.268       .  A
O1018     Ni2453   1.884       .  S
O1019     Ni1030   1.975       .  S
C1020      O1026   1.274       .  A
H1022      O1023   0.963       .  S
O1023     Ni2471   1.977       .  S
O1023     Ni1025   1.859       .  S
O1023     Ni1030   1.942       .  S
O1024     Ni2465   1.973   1_455  S
Ni1025     O2464   1.973       .  S
Ni1025     O1029   1.903       .  S
Ni1025     O1027   1.896       .  S
Ni1025     O2449   1.966       .  S
O1026     Ni2471   1.967       .  S
C1028      O1029   1.243       .  A
C1028      C1048   1.460       .  S
Ni1030     O2452   1.909       .  S
Ni1031     O2448   1.904       .  S
Ni1031     O2466   1.967   1_455  S
Ni1031     O2463   1.977   1_455  S
C1033      C2474   1.421       .  A
C1033      C1038   1.432       .  A
C1034      C2473   1.421       .  A
C1034      C1035   1.398       .  A
C1034      H1043   1.080       .  S
C1035      C1036   1.400       .  A
C1035      S1039   1.796       .  S
C1036      C2477   1.397       .  A
C1037      C2476   1.397       .  A
C1037      C1038   1.402       .  A
C1037      H1044   1.084       .  S
C1038      S1040   1.808       .  S
S1039      H1042   1.408       .  S
S1040      H1041   1.406       .  S
C1045      C2486   1.397       .  A
C1045      C1050   1.401       .  A
C1046      C2485   1.397       .  A
C1046      C1047   1.407       .  A
C1046      H1055   1.083       .  S
C1047      C1048   1.427       .  A
C1047      S1051   1.817       .  S
C1048      C2489   1.423       .  A
C1049      C2488   1.423       .  A
C1049      C1050   1.401       .  A
C1049      H1056   1.081       .  S
C1050      S1052   1.796       .  S
S1051      H1054   1.408       .  S
S1052      H1053   1.408       .  S
C1057      C1062   1.419       .  A
C1058      C1059   1.411       .  A
C1058      H1067   1.082       .  S
C1059      C1060   1.419       .  A
C1059      S1063   1.795       .  S
C1060      C1061   1.402       .  A
C1061      H1068   1.082       .  S
C1062      S1064   1.792       .  S
S1063      H1066   1.408       .  S
S1064      H1065   1.406       .  S
C1069      C1070   1.417       .  A
C1070      C1071   1.414       .  A
C1070      H1079   1.081       .  S
C1071      S1075   1.796       .  S
C1072      C1073   1.415       .  A
C1073      C1074   1.406       .  A
C1073      H1080   1.080       .  S
C1074      S1076   1.788       .  S
S1075      H1078   1.404       .  S
S1076      H1077   1.409       .  S
O1081      C1102   1.268       .  A
O1082      C1091   1.257       .  A
O1082     Ni1105   1.839       .  S
O1083     Ni1087   1.874       .  S
O1083      H1106   0.965       .  S
C1084      O1101   1.296   1_554  A
C1084      C1296   1.486       .  S
O1085      C1091   1.270       .  A
O1086      C1088   1.277       .  A
Ni1087     O1090   1.958       .  S
O1089      C1095   1.274       .  A
O1089     Ni1105   1.908       .  S
C1091      C1432   1.486       .  S
O1092      C1094   1.266       .  A
O1093     Ni1104   1.913       .  S
C1094      C1244   1.483       .  S
C1095      C1192   1.474       .  S
H1096      O1097   0.966       .  S
O1097     Ni1104   1.898       .  S
Ni1099     O1103   1.933   1_565  S
Ni1099     O1101   1.975       .  S
C1102      O1103   1.261       .  A
C1102      C1420   1.493       .  S
O1107      C1128   1.267       .  A
O1108      C1117   1.258       .  A
O1108     Ni1131   1.842       .  S
O1109     Ni1113   1.867       .  S
O1109     Ni1131   1.841       .  S
O1109      H1132   0.966       .  S
C1110      O1127   1.297       .  A
C1110      O1119   1.281       .  A
C1110      C1322   1.486       .  S
O1111      C1117   1.272       .  A
O1112      C1114   1.273       .  A
Ni1113     O1116   1.956       .  S
C1114      O1124   1.265       .  A
C1114      C1172   1.475       .  S
O1115      C1121   1.274       .  A
O1115     Ni1131   1.905       .  S
O1116      C1121   1.284       .  A
C1117      C1417   1.492       .  S
O1118      C1120   1.263       .  A
O1119     Ni1130   1.917       .  S
C1120      O1126   1.276       .  A
C1120      C1270   1.483       .  S
C1121      C1218   1.471       .  S
H1122      O1123   0.966       .  S
O1123     Ni1125   1.896       .  S
O1123     Ni1130   1.894       .  S
Ni1125     O1129   1.941   1_565  S
Ni1125     O1127   1.975       .  S
C1128      O1129   1.263       .  A
C1128      C1429   1.504       .  S
O1133      C1154   1.279       .  A
O1133     Ni1139   1.965       .  S
O1134      C1143   1.275       .  A
O1134     Ni1157   1.933       .  S
O1135     Ni1139   1.888       .  S
O1135     Ni1151   1.894       .  S
O1135      H1158   0.965       .  S
C1136      O1145   1.277   1_554  A
C1136      C1344   1.488       .  S
O1137      C1143   1.276       .  A
O1137     Ni1156   1.951       .  S
O1138      C1140   1.264       .  A
O1138     Ni1156   1.875       .  S
Ni1139     O1142   1.928       .  S
Ni1139     O1144   1.898       .  S
C1140      C2638   1.440       .  S
O1141      C1147   1.265       .  A
O1141     Ni1157   1.902       .  S
C1143      C1180   1.509       .  S
O1145     Ni1156   1.961       .  S
C1146      O1152   1.289   1_554  A
H1148      O1149   0.966       .  S
O1149     Ni1157   1.939       .  S
O1149     Ni1156   1.930       .  S
O1150     Ni1151   1.949       .  S
Ni1151     O1155   1.922       .  S
Ni1151     O1153   1.906       .  S
O1152     Ni1157   1.965       .  S
C1154      O1155   1.273       .  A
C1154      C1169   1.506       .  S
O1159      C1180   1.276       .  A
O1159     Ni1165   1.959       .  S
O1160      C1169   1.271       .  A
O1160     Ni1183   1.926       .  S
O1161     Ni1165   1.888       .  S
O1161     Ni1183   1.910       .  S
O1161     Ni1177   1.890       .  S
O1161      H1184   0.965       .  S
C1162      O1179   1.264       .  A
C1162      O1171   1.277       .  A
C1162      C1370   1.484       .  S
O1163      C1169   1.277       .  A
O1163     Ni1182   1.956       .  S
O1164      C1166   1.266       .  A
O1164     Ni1182   1.878       .  S
Ni1165     O1168   1.928       .  S
Ni1165     O1170   1.892       .  S
C1166      O1176   1.284       .  A
C1166      C2664   1.448       .  S
O1167      C1173   1.263       .  A
O1167     Ni1183   1.896       .  S
O1168      C1173   1.283       .  A
O1170      C1172   1.269       .  A
O1171     Ni1182   1.958       .  S
C1172      O1178   1.284       .  A
H1174      O1175   0.966       .  S
O1175     Ni1183   1.934       .  S
O1175     Ni1177   1.945       .  S
O1175     Ni1182   1.926       .  S
O1176     Ni1177   1.958       .  S
Ni1177     O1181   1.933       .  S
Ni1177     O1179   1.902       .  S
O1178     Ni1183   1.954       .  S
C1180      O1181   1.278       .  A
O1185      C1206   1.256       .  A
O1185     Ni1191   1.879       .  S
O1186      C1195   1.287       .  A
O1186     Ni1209   1.956       .  S
O1187     Ni1191   1.931       .  S
O1187     Ni1203   1.943       .  S
O1187      H1210   0.966       .  S
C1188      O1205   1.277       .  A
O1189      C1195   1.274       .  A
O1189     Ni1208   1.936       .  S
O1190      C1192   1.274       .  A
O1190     Ni1208   1.907       .  S
Ni1191     O1194   1.888       .  S
Ni1191     O1196   1.896       .  S
O1193      C1199   1.285       .  A
O1193     Ni1209   1.929       .  S
C1195      C1232   1.506       .  S
O1196      C1198   1.275       .  A
O1197     Ni1208   1.923       .  S
C1198      C2580   1.440   1_455  S
C1199      C1348   1.457       .  S
H1200      O1201   0.965       .  S
O1201     Ni1209   1.904       .  S
O1201     Ni1208   1.893       .  S
O1202     Ni1203   1.932       .  S
Ni1203     O1207   1.943       .  S
Ni1203     O1205   1.907       .  S
O1204     Ni1209   1.931       .  S
C1206      O1207   1.277       .  A
C1206      C1221   1.471       .  S
O1211      C1232   1.267       .  A
O1211     Ni1217   1.925       .  S
O1212      C1221   1.275       .  A
O1212     Ni1235   1.911       .  S
O1213     Ni1217   1.925       .  S
O1213     Ni1235   1.949       .  S
O1213     Ni1229   1.950       .  S
O1213      H1236   0.966       .  S
C1214      O1231   1.281       .  A
C1214      O1223   1.272       .  A
O1215      C1221   1.266       .  A
O1215     Ni1234   1.921       .  S
O1216      C1218   1.270       .  A
O1216     Ni1234   1.899       .  S
Ni1217     O1220   1.916       .  S
Ni1217     O1222   1.899       .  S
C1218      O1228   1.278       .  A
O1219      C1225   1.273       .  A
O1219     Ni1235   1.934       .  S
O1220      C1225   1.258       .  A
O1222      C1224   1.276       .  A
O1223     Ni1234   1.899       .  S
C1224      O1230   1.275       .  A
C1224      C2606   1.448   1_455  S
C1225      C1374   1.489       .  S
H1226      O1227   0.966       .  S
O1227     Ni1235   1.887       .  S
O1227     Ni1229   1.908       .  S
O1227     Ni1234   1.897       .  S
O1228     Ni1229   1.940       .  S
Ni1229     O1233   1.961       .  S
Ni1229     O1231   1.914       .  S
O1230     Ni1235   1.936       .  S
C1232      O1233   1.283       .  A
O1237      C1258   1.256       .  A
O1237     Ni1243   1.897       .  S
O1238      C1247   1.280       .  A
O1238     Ni1261   1.939       .  S
O1239     Ni1243   1.925       .  S
O1239     Ni1255   1.947       .  S
O1239      H1262   0.966       .  S
C1240      O1257   1.277       .  A
O1241      C1247   1.268       .  A
O1241     Ni1260   1.925       .  S
O1242      C1244   1.269       .  A
O1242     Ni1260   1.898       .  S
Ni1243     O1246   1.866       .  S
Ni1243     O1248   1.908       .  S
O1245      C1251   1.277       .  A
O1245     Ni1261   1.951       .  S
C1247      C1284   1.488       .  S
O1248      C1250   1.275       .  A
O1249     Ni1260   1.914       .  S
C1250      C2382   1.444   1_455  S
H1252      O1253   0.966       .  S
O1253     Ni1261   1.904       .  S
O1253     Ni1260   1.893       .  S
O1254     Ni1255   1.957       .  S
Ni1255     O1259   1.952       .  S
Ni1255     O1257   1.913       .  S
O1256     Ni1261   1.921       .  S
C1258      O1259   1.278       .  A
C1258      C1273   1.488       .  S
O1263      C1284   1.264       .  A
O1263     Ni1269   1.918       .  S
O1264      C1273   1.283       .  A
O1264     Ni1287   1.939       .  S
O1265     Ni1269   1.927       .  S
O1265     Ni1287   1.949       .  S
O1265     Ni1281   1.918       .  S
O1265      H1288   0.966       .  S
C1266      O1283   1.279       .  A
C1266      O1275   1.273       .  A
O1267      C1273   1.268       .  A
O1267     Ni1286   1.923       .  S
O1268      C1270   1.271       .  A
O1268     Ni1286   1.899       .  S
Ni1269     O1272   1.902       .  S
Ni1269     O1274   1.918       .  S
C1270      O1280   1.281       .  A
O1271      C1277   1.278       .  A
O1271     Ni1287   1.934       .  S
O1272      C1277   1.262       .  A
O1274      C1276   1.272       .  A
O1275     Ni1286   1.910       .  S
C1276      O1282   1.272       .  A
C1276      C2768   1.457   1_455  S
C1277      C1381   1.476       .  S
H1278      O1279   0.966       .  S
O1279     Ni1287   1.902       .  S
O1279     Ni1281   1.913       .  S
O1279     Ni1286   1.891       .  S
O1280     Ni1281   1.957       .  S
Ni1281     O1285   1.948       .  S
Ni1281     O1283   1.903       .  S
O1282     Ni1287   1.923       .  S
C1284      O1285   1.279       .  A
O1289      C1310   1.261       .  A
O1289     Ni1295   1.905       .  S
O1290      C1299   1.290       .  A
O1290     Ni1313   1.943       .  S
O1291     Ni1295   1.883       .  S
O1291     Ni1307   1.902       .  S
O1291      H1314   0.966       .  S
C1292      O1309   1.283       .  A
O1293      C1299   1.276       .  A
O1293     Ni1312   1.925       .  S
O1294     Ni1312   1.907       .  S
Ni1295     O1298   1.891   1_556  S
Ni1295     O1300   1.944       .  S
C1296      O1306   1.281   1_554  A
O1297      C1303   1.278       .  A
O1297     Ni1313   2.017       .  S
C1299      C1336   1.488       .  S
O1300      C1302   1.276   1_556  A
O1301     Ni1312   1.904       .  S
C1302      C2330   1.443       .  S
H1304      O1305   0.967       .  S
O1305     Ni1313   1.904       .  S
O1305     Ni1312   1.878       .  S
O1306     Ni1307   1.986       .  S
Ni1307     O1311   1.973       .  S
Ni1307     O1309   1.955       .  S
O1308     Ni1313   1.879       .  S
C1310      O1311   1.292       .  A
C1310      C1325   1.494       .  S
O1315      C1336   1.260       .  A
O1315     Ni1321   1.901       .  S
O1316      C1325   1.296       .  A
O1316     Ni1339   1.960       .  S
O1317     Ni1321   1.883       .  S
O1317     Ni1339   1.977       .  S
O1317     Ni1333   1.900       .  S
O1317      H1340   0.966       .  S
C1318      O1335   1.282       .  A
C1318      O1327   1.259       .  A
O1319      C1325   1.272       .  A
O1319     Ni1338   1.916       .  S
O1320      C1322   1.266       .  A
O1320     Ni1338   1.907       .  S
Ni1321     O1324   1.887       .  S
Ni1321     O1326   1.945       .  S
C1322      O1332   1.279       .  A
O1323      C1329   1.280       .  A
O1323     Ni1339   2.004       .  S
O1324      C1329   1.246       .  A
O1326      C1328   1.276       .  A
O1327     Ni1338   1.898       .  S
C1328      O1334   1.271       .  A
C1328      C2716   1.457       .  S
C1329      C1380   1.495       .  S
H1330      O1331   0.967       .  S
O1331     Ni1339   1.903       .  S
O1331     Ni1333   1.947       .  S
O1331     Ni1338   1.886       .  S
O1332     Ni1333   1.984       .  S
Ni1333     O1337   1.966       .  S
Ni1333     O1335   1.950       .  S
O1334     Ni1339   1.906       .  S
C1336      O1337   1.287       .  A
O1341      C1362   1.270       .  A
O1341     Ni1347   1.940       .  S
O1342      C1351   1.266       .  A
O1342     Ni1365   1.848       .  S
O1343     Ni1347   1.887       .  S
O1343     Ni2799   1.899   1_556  S
O1343      H1366   0.966   1_655  S
C1344      O1361   1.256       .  A
O1345      C1351   1.279       .  A
O1345     Ni2804   1.919   1_455  S
O1346      C1348   1.241       .  A
O1346     Ni2804   1.840   1_455  S
Ni1347     O1350   1.959   1_655  S
Ni1347     O2792   1.877       .  S
O1349      C1355   1.278       .  A
O1349     Ni1365   1.905       .  S
C1351      C1405   1.490       .  S
O1352      C1354   1.262   1_556  A
O1352     Ni2787   1.877       .  S
O1353     Ni1364   1.993       .  S
H1356      O1357   0.966       .  S
O1357     Ni2805   1.925       .  S
O1357     Ni1364   1.896       .  S
O1358     Ni2799   1.997   1_556  S
Ni1359     O2798   1.997   1_554  S
Ni1359     O2803   1.864   1_554  S
Ni1359     O1361   1.890       .  S
Ni1359     O2783   1.899   1_554  S
O1360     Ni2805   1.988       .  S
C1362      O1363   1.269       .  A
C1362      C1396   1.481       .  S
O1363     Ni2799   1.864   1_556  S
Ni1364     O2785   1.919       .  S
Ni1364     O2786   1.840       .  S
Ni1365     O2800   1.988   1_455  S
Ni1365     O2797   1.925   1_455  S
O1367      C1388   1.254       .  A
O1367     Ni2813   1.879       .  S
O1368      C1377   1.253       .  A
O1368     Ni2831   1.904       .  S
O1369     Ni1373   1.925   1_455  S
O1369     Ni1391   1.881       .  S
O1369     Ni2825   1.966   1_455  S
O1369      H1392   0.965       .  S
C1370      O1387   1.258       .  A
C1370      O1379   1.283       .  A
O1371      C1377   1.265       .  A
O1371     Ni1390   1.912       .  S
O1372      C1374   1.266       .  A
O1372     Ni2830   1.909   1_455  S
Ni1373     O2807   1.879       .  S
Ni1373     O1376   1.916   1_655  S
Ni1373     O2818   1.884       .  S
C1374      O1384   1.290       .  A
O1375      C1381   1.279       .  A
O1375     Ni1391   1.932       .  S
O1376      C1381   1.271       .  A
C1377      C1393   1.469       .  S
O1378      C1380   1.268       .  A
O1378     Ni2813   1.884       .  S
O1379     Ni1390   1.975       .  S
C1380      O1386   1.274       .  A
H1382      O1383   0.963       .  S
O1383     Ni2831   1.977       .  S
O1383     Ni1385   1.859       .  S
O1383     Ni1390   1.942       .  S
O1384     Ni2825   1.974   1_455  S
Ni1385     O2824   1.974       .  S
Ni1385     O1389   1.903       .  S
Ni1385     O1387   1.896       .  S
Ni1385     O2809   1.966       .  S
O1386     Ni2831   1.967       .  S
C1388      O1389   1.243       .  A
C1388      C1408   1.460       .  S
Ni1390     O2812   1.909       .  S
Ni1391     O2808   1.904       .  S
Ni1391     O2826   1.967   1_455  S
Ni1391     O2823   1.977   1_455  S
C1393      C2834   1.421       .  A
C1393      C1398   1.432       .  A
C1394      C2833   1.421       .  A
C1394      C1395   1.398       .  A
C1394      H1403   1.080       .  S
C1395      C1396   1.400       .  A
C1395      S1399   1.796       .  S
C1396      C2837   1.397       .  A
C1397      C2836   1.397       .  A
C1397      C1398   1.401       .  A
C1397      H1404   1.084       .  S
C1398      S1400   1.808       .  S
S1399      H1402   1.408       .  S
S1400      H1401   1.406       .  S
C1405      C2846   1.397       .  A
C1405      C1410   1.401       .  A
C1406      C2845   1.397       .  A
C1406      C1407   1.407       .  A
C1406      H1415   1.083       .  S
C1407      C1408   1.427       .  A
C1407      S1411   1.817       .  S
C1408      C2849   1.423       .  A
C1409      C2848   1.423       .  A
C1409      C1410   1.401       .  A
C1409      H1416   1.081       .  S
C1410      S1412   1.796       .  S
S1411      H1414   1.408       .  S
S1412      H1413   1.408       .  S
C1417      C1422   1.419       .  A
C1418      C1419   1.411       .  A
C1418      H1427   1.082       .  S
C1419      C1420   1.419       .  A
C1419      S1423   1.795       .  S
C1420      C1421   1.402       .  A
C1421      H1428   1.082       .  S
C1422      S1424   1.792       .  S
S1423      H1426   1.408       .  S
S1424      H1425   1.406       .  S
C1429      C1430   1.417       .  A
C1430      C1431   1.414       .  A
C1430      H1439   1.081       .  S
C1431      S1435   1.796       .  S
C1432      C1433   1.415       .  A
C1433      C1434   1.406       .  A
C1433      H1440   1.080       .  S
C1434      S1436   1.788       .  S
S1435      H1438   1.404       .  S
S1436      H1437   1.409       .  S
O1441      C1462   1.268       .  A
O1441     Ni2167   1.885       .  S
O1442      C1451   1.257   1_565  A
O1442     Ni1465   1.839   1_565  S
O1443     Ni1447   1.874       .  S
O1443     Ni1825   1.842       .  S
O1443     Ni2179   1.955   1_545  S
O1443      H1466   0.965       .  S
C1444      O1461   1.296       .  A
C1444      O1813   1.278       .  A
C1444      C1656   1.486       .  S
O1445      C1451   1.270   1_565  A
O1445     Ni2184   1.912       .  S
O1446      C1448   1.277   1_565  A
O1446     Ni2184   1.940       .  S
Ni1447     O2161   1.885       .  S
Ni1447     O1450   1.958       .  S
Ni1447     O2172   1.905   1_545  S
C1448      O1818   1.263   1_554  A
C1448      C1866   1.483       .  S
O1449      C1455   1.274   1_554  A
O1449     Ni1465   1.908       .  S
O1450      C1815   1.286       .  A
C1451      C1792   1.486       .  S
O1452      C1454   1.266       .  A
O1452     Ni2167   1.905       .  S
O1453      C1804   1.278       .  A
O1453     Ni1464   1.913       .  S
C1454      O1820   1.275       .  A
C1454      C1604   1.483       .  S
C1455      O1810   1.286       .  A
C1455      C1552   1.474       .  S
H1456      O1457   0.966       .  S
O1457     Ni2185   1.923       .  S
O1457     Ni1819   1.893   1_554  S
O1457     Ni1464   1.898       .  S
O1458      C1808   1.263       .  A
O1458     Ni2179   1.920   1_545  S
Ni1459     O2178   1.920       .  S
Ni1459     O1463   1.932       .  S
Ni1459     O1461   1.975       .  S
Ni1459     O2163   1.955       .  S
Ni1459     O1817   1.893       .  S
O1460      C1814   1.275   1_554  A
O1460     Ni2185   1.958       .  S
C1462      O1463   1.261       .  A
C1462      C1780   1.493       .  S
Ni1464     O2165   1.912       .  S
Ni1464     O2166   1.940       .  S
Ni1465     O2180   1.958   1_545  S
Ni1465     O1803   1.842   1_554  S
Ni1465     O2177   1.923   1_545  S
O1467      C1488   1.267       .  A
O1467     Ni2193   1.880       .  S
O1468      C1477   1.259   1_565  A
O1468     Ni1491   1.842   1_565  S
O1469     Ni1473   1.867       .  S
O1469     Ni1491   1.841       .  S
O1469     Ni2205   1.950   1_545  S
O1469      H1492   0.966       .  S
C1470      O1487   1.297       .  A
C1470      O1479   1.281       .  A
C1470      C1682   1.486       .  S
O1471      C1477   1.272   1_565  A
O1471     Ni2210   1.919       .  S
O1472      C1474   1.273   1_565  A
O1472     Ni2210   1.927       .  S
Ni1473     O2187   1.881       .  S
Ni1473     O1476   1.956       .  S
Ni1473     O2198   1.899   1_545  S
C1474      O1484   1.265       .  A
C1474      C1532   1.475       .  S
O1475      C1481   1.275       .  A
O1475     Ni1491   1.905       .  S
O1476      C1481   1.285       .  A
C1477      C1777   1.492       .  S
O1478      C1480   1.263       .  A
O1478     Ni2193   1.899       .  S
O1479     Ni1490   1.918       .  S
C1480      O1486   1.276       .  A
C1480      C1630   1.483       .  S
C1481      C1578   1.472       .  S
H1482      O1483   0.966       .  S
O1483     Ni2211   1.924       .  S
O1483     Ni1485   1.896       .  S
O1483     Ni1490   1.894       .  S
O1484     Ni2205   1.916   1_545  S
Ni1485     O2204   1.916       .  S
Ni1485     O1489   1.941       .  S
Ni1485     O1487   1.975       .  S
Ni1485     O2189   1.950       .  S
O1486     Ni2211   1.964       .  S
C1488      O1489   1.263       .  A
C1488      C1789   1.504       .  S
Ni1490     O2191   1.920       .  S
Ni1490     O2192   1.926       .  S
Ni1491     O2206   1.965   1_545  S
Ni1491     O2203   1.923   1_545  S
O1493      C1514   1.279       .  A
O1493     Ni1499   1.965       .  S
O1494      C1503   1.275       .  A
O1494     Ni1517   1.934       .  S
O1495     Ni1499   1.888       .  S
O1495     Ni1877   1.911   1_554  S
O1495     Ni1511   1.894       .  S
O1495      H1518   0.965       .  S
C1496      O1873   1.264       .  A
C1496      O1505   1.277       .  A
C1496      C1704   1.488       .  S
O1497      C1503   1.276       .  A
O1497     Ni1516   1.952       .  S
O1498      C1500   1.264       .  A
O1498     Ni1516   1.875       .  S
Ni1499     O1502   1.928   1_545  S
Ni1499     O1504   1.898       .  S
C1500      O1870   1.280       .  A
O1501      C1507   1.265   1_545  A
O1501     Ni1517   1.902       .  S
O1502      C1867   1.282   1_554  A
C1503      C1540   1.509       .  S
O1504      C1866   1.272       .  A
O1505     Ni1516   1.961       .  S
C1506      O1864   1.272       .  A
C1506      O1512   1.289       .  A
C1506      C1808   1.483       .  S
C1507      O1862   1.282       .  A
C1507      C2372   1.453       .  S
H1508      O1509   0.966       .  S
O1509     Ni1517   1.939       .  S
O1509     Ni1871   1.946       .  S
O1509     Ni1516   1.930       .  S
O1510      C1860   1.280   1_554  A
O1510     Ni1511   1.949       .  S
Ni1511     O1515   1.923       .  S
Ni1511     O1513   1.905       .  S
Ni1511     O1869   1.945   1_554  S
O1512     Ni1517   1.965       .  S
O1513      C1856   1.264       .  A
C1514      O1515   1.273       .  A
C1514      C1529   1.507       .  S
Ni1517     O1855   1.911       .  S
O1519      C1540   1.277       .  A
O1519     Ni1525   1.960       .  S
O1520      C1529   1.271       .  A
O1520     Ni1543   1.926       .  S
O1521     Ni1525   1.886       .  S
O1521     Ni1543   1.909       .  S
O1521     Ni1537   1.890       .  S
O1521      H1544   0.965       .  S
C1522      O1539   1.264       .  A
C1522      O1531   1.278       .  A
C1522      C1730   1.484       .  S
O1523      C1529   1.277       .  A
O1523     Ni1542   1.957       .  S
O1524      C1526   1.265       .  A
O1524     Ni1542   1.878       .  S
Ni1525     O1528   1.929       .  S
Ni1525     O1530   1.893       .  S
C1526      O1536   1.284       .  A
O1527      C1533   1.263   1_545  A
O1527     Ni1543   1.897       .  S
O1528      C1533   1.283   1_545  A
O1530      C1532   1.269       .  A
O1531     Ni1542   1.959       .  S
C1532      O1538   1.285       .  A
C1533      C2398   1.448       .  S
H1534      O1535   0.966       .  S
O1535     Ni1543   1.934       .  S
O1535     Ni1537   1.945       .  S
O1535     Ni1542   1.925       .  S
O1536     Ni1537   1.957       .  S
Ni1537     O1541   1.933       .  S
Ni1537     O1539   1.902       .  S
O1538     Ni1543   1.954       .  S
C1540      O1541   1.278       .  A
O1545      C1566   1.256       .  A
O1545     Ni1551   1.878       .  S
O1546      C1555   1.287       .  A
O1546     Ni1569   1.956       .  S
O1547     Ni1551   1.931       .  S
O1547     Ni1929   1.931       .  S
O1547     Ni1563   1.943       .  S
O1547      H1570   0.966       .  S
C1548      O1565   1.277       .  A
C1548      O1917   1.276       .  A
C1548      C2680   1.458   1_545  S
O1549      C1555   1.274       .  A
O1549     Ni1568   1.935       .  S
O1550      C1552   1.274   1_554  A
O1550     Ni1568   1.907       .  S
Ni1551     O1554   1.888       .  S
Ni1551     O1556   1.896       .  S
C1552      O1922   1.278       .  A
O1553      C1559   1.285   1_554  A
O1553     Ni1569   1.929       .  S
O1554      C1919   1.252       .  A
C1555      C1592   1.506       .  S
O1556      C1558   1.275       .  A
O1557      C1908   1.276   1_554  A
O1557     Ni1568   1.922       .  S
C1558      O1924   1.275       .  A
C1559      O1914   1.252       .  A
C1559      C1708   1.457   1_556  S
H1560      O1561   0.965       .  S
O1561     Ni1569   1.904       .  S
O1561     Ni1923   1.904   1_554  S
O1561     Ni1568   1.893       .  S
O1562      C1912   1.278       .  A
O1562     Ni1563   1.932       .  S
Ni1563     O1567   1.944       .  S
Ni1563     O1565   1.907       .  S
Ni1563     O1921   1.904       .  S
O1564      C1918   1.275   1_554  A
O1564     Ni1569   1.931       .  S
C1566      O1567   1.277       .  A
C1566      C1581   1.471       .  S
Ni1569     O1907   1.931   1_554  S
O1571      C1592   1.267       .  A
O1571     Ni1577   1.925       .  S
O1572      C1581   1.275       .  A
O1572     Ni1595   1.911       .  S
O1573     Ni1577   1.925       .  S
O1573     Ni1595   1.949       .  S
O1573     Ni1589   1.950       .  S
O1573      H1596   0.966       .  S
C1574      O1591   1.281       .  A
C1574      O1583   1.272       .  A
C1574      C2346   1.446   1_545  S
O1575      C1581   1.266       .  A
O1575     Ni1594   1.921       .  S
O1576      C1578   1.271       .  A
O1576     Ni1594   1.899       .  S
Ni1577     O1580   1.916       .  S
Ni1577     O1582   1.899       .  S
C1578      O1588   1.278       .  A
O1579      C1585   1.273       .  A
O1579     Ni1595   1.934       .  S
O1580      C1585   1.258       .  A
O1582      C1584   1.277       .  A
O1583     Ni1594   1.899       .  S
C1584      O1590   1.275       .  A
C1585      C1734   1.489       .  S
H1586      O1587   0.966       .  S
O1587     Ni1595   1.887       .  S
O1587     Ni1589   1.907       .  S
O1587     Ni1594   1.896       .  S
O1588     Ni1589   1.940       .  S
Ni1589     O1593   1.961       .  S
Ni1589     O1591   1.914       .  S
O1590     Ni1595   1.936       .  S
C1592      O1593   1.283       .  A
O1597      C1618   1.256       .  A
O1597     Ni1603   1.897       .  S
O1598      C1607   1.280       .  A
O1598     Ni1621   1.939       .  S
O1599     Ni1603   1.925       .  S
O1599     Ni1981   1.972   1_554  S
O1599     Ni1615   1.947       .  S
O1599      H1622   0.966       .  S
C1600      O1617   1.277   1_556  A
C1600      O1969   1.275       .  A
C1600      C2628   1.458       .  S
O1601      C1607   1.268       .  A
O1601     Ni1620   1.924       .  S
O1602      C1604   1.269       .  A
O1602     Ni1620   1.898       .  S
Ni1603     O1606   1.866       .  S
Ni1603     O1608   1.908       .  S
C1604      O1974   1.281       .  A
O1605      C1611   1.277       .  A
O1605     Ni1621   1.951       .  S
O1606      C1971   1.256   1_554  A
C1607      C1644   1.488       .  S
O1608      C1610   1.275       .  A
O1609      C1960   1.275       .  A
O1609     Ni1620   1.914       .  S
C1610      O1976   1.272   1_554  A
C1611      O1966   1.256       .  A
C1611      C2075   1.482       .  S
H1612      O1613   0.966       .  S
O1613     Ni1621   1.904       .  S
O1613     Ni1975   1.913       .  S
O1613     Ni1620   1.893       .  S
O1614      C1964   1.280   1_554  A
O1614     Ni1615   1.957       .  S
Ni1615     O1619   1.951       .  S
Ni1615     O1617   1.913       .  S
Ni1615     O1973   1.913   1_554  S
O1616      C1970   1.272       .  A
O1616     Ni1621   1.920       .  S
C1618      O1619   1.278       .  A
C1618      C1633   1.487       .  S
Ni1621     O1959   1.972       .  S
O1623      C1644   1.264       .  A
O1623     Ni1629   1.918       .  S
O1624      C1633   1.283       .  A
O1624     Ni1647   1.939       .  S
O1625     Ni1629   1.927       .  S
O1625     Ni1647   1.949       .  S
O1625     Ni1641   1.917       .  S
O1625      H1648   0.966       .  S
C1626      O1643   1.279       .  A
C1626      O1635   1.273       .  A
C1626      C2294   1.444       .  S
O1627      C1633   1.268       .  A
O1627     Ni1646   1.923       .  S
O1628      C1630   1.270       .  A
O1628     Ni1646   1.898       .  S
Ni1629     O1632   1.901       .  S
Ni1629     O1634   1.918       .  S
C1630      O1640   1.281       .  A
O1631      C1637   1.278       .  A
O1631     Ni1647   1.934       .  S
O1632      C1637   1.262       .  A
O1634      C1636   1.272       .  A
O1635     Ni1646   1.910       .  S
C1636      O1642   1.272       .  A
C1637      C1741   1.476       .  S
H1638      O1639   0.966       .  S
O1639     Ni1647   1.902       .  S
O1639     Ni1641   1.913       .  S
O1639     Ni1646   1.891       .  S
O1640     Ni1641   1.957       .  S
Ni1641     O1645   1.947       .  S
Ni1641     O1643   1.902       .  S
O1642     Ni1647   1.924       .  S
C1644      O1645   1.279       .  A
O1649      C1670   1.261       .  A
O1649     Ni1655   1.905       .  S
O1650      C1659   1.290       .  A
O1650     Ni1673   1.942       .  S
O1651     Ni1655   1.883       .  S
O1651     Ni2033   1.987       .  S
O1651     Ni1667   1.902       .  S
O1651      H1674   0.966       .  S
C1652      O1669   1.283       .  A
C1652      O2021   1.260       .  A
C1652      C2227   1.453       .  S
O1653      C1659   1.276       .  A
O1653     Ni1672   1.925       .  S
O1654      C2016   1.267       .  A
O1654     Ni1672   1.907       .  S
Ni1655     O1658   1.891       .  S
Ni1655     O1660   1.944       .  S
C1656      O2014   1.267       .  A
C1656      O1666   1.281       .  A
O1657      C1663   1.278       .  A
O1657     Ni1673   2.016       .  S
O1658      C2023   1.245       .  A
C1659      C1696   1.487       .  S
O1660      C1662   1.276       .  A
O1661      C2012   1.260   1_554  A
O1661     Ni1672   1.904       .  S
C1662      O2028   1.260       .  A
C1663      O2018   1.245       .  A
C1663      C2074   1.503       .  S
H1664      O1665   0.967       .  S
O1665     Ni1673   1.903       .  S
O1665     Ni2027   1.948   1_554  S
O1665     Ni1672   1.878       .  S
O1666     Ni1667   1.986       .  S
Ni1667     O1671   1.973       .  S
Ni1667     O1669   1.955       .  S
Ni1667     O2025   1.948       .  S
O1668      C2022   1.260       .  A
O1668     Ni1673   1.879       .  S
C1670      O1671   1.292       .  A
C1670      C1685   1.494       .  S
Ni1673     O2011   1.987   1_554  S
O1675      C1696   1.260       .  A
O1675     Ni1681   1.901       .  S
O1676      C1685   1.296       .  A
O1676     Ni1699   1.960       .  S
O1677     Ni1681   1.883       .  S
O1677     Ni1699   1.976       .  S
O1677     Ni1693   1.900       .  S
O1677      H1700   0.966       .  S
C1678      O1695   1.282       .  A
C1678      O1687   1.259       .  A
C1678      C2253   1.449       .  S
O1679      C1685   1.272       .  A
O1679     Ni1698   1.916       .  S
O1680      C1682   1.266       .  A
O1680     Ni1698   1.907       .  S
Ni1681     O1684   1.887       .  S
Ni1681     O1686   1.945       .  S
C1682      O1692   1.279       .  A
O1683      C1689   1.280       .  A
O1683     Ni1699   2.004       .  S
O1684      C1689   1.246       .  A
O1686      C1688   1.276       .  A
O1687     Ni1698   1.898       .  S
C1688      O1694   1.271       .  A
C1689      C1740   1.495       .  S
H1690      O1691   0.967       .  S
O1691     Ni1699   1.903       .  S
O1691     Ni1693   1.947       .  S
O1691     Ni1698   1.886       .  S
O1692     Ni1693   1.984       .  S
Ni1693     O1697   1.965       .  S
Ni1693     O1695   1.951       .  S
O1694     Ni1699   1.906       .  S
C1696      O1697   1.287       .  A
O1701      C1722   1.270       .  A
O1701     Ni1707   1.940       .  S
O1702      C1711   1.266       .  A
O1702     Ni1725   1.848       .  S
O1703     Ni1707   1.887       .  S
O1703     Ni2085   1.853       .  S
O1703      H1726   0.966       .  S
C1704      O1721   1.256       .  A
C1704      O2073   1.287       .  A
O1705      C1711   1.279       .  A
O1706      C1708   1.241       .  A
Ni1707     O1710   1.959       .  S
C1708      O2078   1.295   1_554  A
O1709      C1715   1.278   1_554  A
O1709     Ni1725   1.905       .  S
O1710      C2075   1.282       .  A
C1711      C1765   1.490       .  S
O1712      C1714   1.262       .  A
O1713      C2064   1.287       .  A
O1713     Ni1724   1.993       .  S
C1714      O2080   1.279       .  A
C1714      C2023   1.503       .  S
C1715      O2070   1.282       .  A
C1715      C1971   1.482       .  S
H1716      O1717   0.966       .  S
O1717     Ni2079   1.883   1_554  S
O1717     Ni1724   1.896       .  S
O1718      C2068   1.295       .  A
Ni1719     O1721   1.890       .  S
Ni1719     O2077   1.883       .  S
O1720      C2074   1.278       .  A
C1722      O1723   1.269       .  A
C1722      C1756   1.481       .  S
Ni1725     O2063   1.853   1_554  S
O1727      C1748   1.254       .  A
O1728      C1737   1.253       .  A
O1729     Ni1733   1.925       .  S
O1729     Ni1751   1.881       .  S
O1729      H1752   0.965       .  S
C1730      O1747   1.258       .  A
C1730      O1739   1.283       .  A
O1731      C1737   1.265       .  A
O1731     Ni1750   1.912   1_455  S
O1732      C1734   1.266       .  A
Ni1733     O1736   1.915       .  S
C1734      O1744   1.290       .  A
O1735      C1741   1.279       .  A
O1735     Ni1751   1.932       .  S
O1736      C1741   1.271       .  A
C1737      C1753   1.469   1_455  S
O1738      C1740   1.268       .  A
O1739     Ni1750   1.975       .  S
C1740      O1746   1.274       .  A
H1742      O1743   0.963       .  S
O1743     Ni1745   1.858       .  S
O1743     Ni1750   1.942       .  S
Ni1745     O1749   1.903       .  S
Ni1745     O1747   1.896       .  S
C1748      O1749   1.243       .  A
C1748      C1768   1.460   1_655  S
C1753      C1758   1.432       .  A
C1754      C1755   1.398       .  A
C1754      H1763   1.080       .  S
C1755      C1756   1.400       .  A
C1755      S1759   1.796       .  S
C1757      C1758   1.402       .  A
C1757      H1764   1.084       .  S
C1758      S1760   1.808       .  S
S1759      H1762   1.408       .  S
S1760      H1761   1.406   1_655  S
C1765      C1770   1.401       .  A
C1766      C1767   1.407       .  A
C1766      H1775   1.083       .  S
C1767      C1768   1.427       .  A
C1767      S1771   1.817   1_455  S
C1769      C1770   1.401       .  A
C1769      H1776   1.081       .  S
C1770      S1772   1.796       .  S
S1771      H1774   1.408       .  S
S1772      H1773   1.408       .  S
C1777      C2498   1.403       .  A
C1777      C1782   1.420       .  A
C1778      C2497   1.403       .  A
C1778      C1779   1.411       .  A
C1778      H1787   1.082       .  S
C1779      C1780   1.419       .  A
C1779      S1783   1.795       .  S
C1780      C1781   1.402       .  A
C1781      C2502   1.407       .  A
C1781      H1788   1.082       .  S
C1782      C2501   1.407       .  A
C1782      S1784   1.792       .  S
S1783      H1786   1.408       .  S
S1784      H1785   1.406       .  S
C1789      C1790   1.417       .  A
C1789      C2514   1.399       .  A
C1790      C1791   1.414       .  A
C1790      H1799   1.081       .  S
C1791      C2512   1.406       .  A
C1791      S1795   1.796       .  S
C1792      C2511   1.406       .  A
C1792      C1793   1.414       .  A
C1793      C1794   1.406       .  A
C1793      H1800   1.080       .  S
C1794      C2509   1.399       .  A
C1794      S1796   1.788       .  S
S1795      H1798   1.404       .  S
S1796      H1797   1.409       .  S
O1801      C1822   1.268       .  A
O1801     Ni2527   1.885       .  S
O1802      C1811   1.257   1_565  A
O1802     Ni1825   1.839   1_565  S
O1803     Ni1807   1.874       .  S
O1803     Ni2539   1.955   1_545  S
O1803      H1826   0.965       .  S
C1804      O1821   1.296   1_554  A
C1804      C2016   1.486       .  S
O1805      C1811   1.270   1_565  A
O1805     Ni2544   1.912       .  S
O1806      C1808   1.277   1_565  A
O1806     Ni2544   1.939       .  S
Ni1807     O2521   1.885       .  S
Ni1807     O1810   1.958       .  S
Ni1807     O2532   1.905   1_545  S
O1809      C1815   1.274       .  A
O1809     Ni1825   1.908       .  S
C1811      C2152   1.486       .  S
O1812      C1814   1.266       .  A
O1812     Ni2527   1.905       .  S
O1813     Ni1824   1.913       .  S
C1814      C1964   1.483       .  S
C1815      C1912   1.474       .  S
H1816      O1817   0.966       .  S
O1817     Ni2545   1.923       .  S
O1817     Ni1824   1.898       .  S
O1818     Ni2539   1.920   1_545  S
Ni1819     O2538   1.920       .  S
Ni1819     O1823   1.932       .  S
Ni1819     O1821   1.975       .  S
Ni1819     O2523   1.955       .  S
O1820     Ni2545   1.958       .  S
C1822      O1823   1.261       .  A
C1822      C2140   1.493       .  S
Ni1824     O2525   1.912       .  S
Ni1824     O2526   1.940       .  S
Ni1825     O2540   1.958   1_545  S
Ni1825     O2537   1.923   1_545  S
O1827      C1848   1.267       .  A
O1827     Ni2553   1.880       .  S
O1828      C1837   1.258   1_565  A
O1828     Ni1851   1.842   1_565  S
O1829     Ni1833   1.867       .  S
O1829     Ni1851   1.841       .  S
O1829     Ni2565   1.950   1_545  S
O1829      H1852   0.966       .  S
C1830      O1847   1.297       .  A
C1830      O1839   1.281       .  A
C1830      C2042   1.486       .  S
O1831      C1837   1.272   1_565  A
O1831     Ni2570   1.920       .  S
O1832      C1834   1.273   1_565  A
O1832     Ni2570   1.927       .  S
Ni1833     O2547   1.880       .  S
Ni1833     O1836   1.956       .  S
Ni1833     O2558   1.899   1_545  S
C1834      O1844   1.264       .  A
C1834      C1892   1.475       .  S
O1835      C1841   1.274       .  A
O1835     Ni1851   1.905       .  S
O1836      C1841   1.284       .  A
C1837      C2137   1.492       .  S
O1838      C1840   1.263       .  A
O1838     Ni2553   1.899       .  S
O1839     Ni1850   1.917       .  S
C1840      O1846   1.276       .  A
C1840      C1990   1.483       .  S
C1841      C1938   1.471       .  S
H1842      O1843   0.966       .  S
O1843     Ni2571   1.923       .  S
O1843     Ni1845   1.895       .  S
O1843     Ni1850   1.894       .  S
O1844     Ni2565   1.916   1_545  S
Ni1845     O2564   1.916       .  S
Ni1845     O1849   1.941       .  S
Ni1845     O1847   1.975       .  S
Ni1845     O2549   1.950       .  S
O1846     Ni2571   1.965       .  S
C1848      O1849   1.263       .  A
C1848      C2149   1.504       .  S
Ni1850     O2551   1.920       .  S
Ni1850     O2552   1.926       .  S
Ni1851     O2566   1.964   1_545  S
Ni1851     O2563   1.923   1_545  S
O1853      C1874   1.279       .  A
O1853     Ni1859   1.964       .  S
O1854      C1863   1.275       .  A
O1854     Ni1877   1.933       .  S
O1855     Ni1859   1.889       .  S
O1855     Ni1871   1.894       .  S
O1855      H1878   0.965       .  S
C1856      O1865   1.277   1_554  A
C1856      C2064   1.488       .  S
O1857      C1863   1.276       .  A
O1857     Ni1876   1.951       .  S
O1858      C1860   1.264       .  A
O1858     Ni1876   1.875       .  S
Ni1859     O1862   1.927   1_545  S
Ni1859     O1864   1.898       .  S
O1861      C1867   1.265   1_545  A
O1861     Ni1877   1.902       .  S
C1863      C1900   1.509       .  S
O1865     Ni1876   1.961       .  S
C1866      O1872   1.289   1_554  A
C1867      C2732   1.453       .  S
H1868      O1869   0.966       .  S
O1869     Ni1877   1.939       .  S
O1869     Ni1876   1.930       .  S
O1870     Ni1871   1.949       .  S
Ni1871     O1875   1.924       .  S
Ni1871     O1873   1.906       .  S
O1872     Ni1877   1.965       .  S
C1874      O1875   1.273       .  A
C1874      C1889   1.507       .  S
O1879      C1900   1.276       .  A
O1879     Ni1885   1.959       .  S
O1880      C1889   1.271       .  A
O1880     Ni1903   1.926       .  S
O1881     Ni1885   1.887       .  S
O1881     Ni1903   1.910       .  S
O1881     Ni1897   1.890       .  S
O1881      H1904   0.965       .  S
C1882      O1899   1.264       .  A
C1882      O1891   1.277       .  A
C1882      C2090   1.485       .  S
O1883      C1889   1.277       .  A
O1883     Ni1902   1.956       .  S
O1884      C1886   1.266       .  A
O1884     Ni1902   1.878       .  S
Ni1885     O1888   1.928       .  S
Ni1885     O1890   1.891       .  S
C1886      O1896   1.284       .  A
O1887      C1893   1.263   1_545  A
O1887     Ni1903   1.897       .  S
O1888      C1893   1.283   1_545  A
O1890      C1892   1.269       .  A
O1891     Ni1902   1.958       .  S
C1892      O1898   1.285       .  A
C1893      C2758   1.448       .  S
H1894      O1895   0.966       .  S
O1895     Ni1903   1.934       .  S
O1895     Ni1897   1.946       .  S
O1895     Ni1902   1.926       .  S
O1896     Ni1897   1.958       .  S
Ni1897     O1901   1.933       .  S
Ni1897     O1899   1.903       .  S
O1898     Ni1903   1.955       .  S
C1900      O1901   1.278       .  A
O1905      C1926   1.256       .  A
O1905     Ni1911   1.878       .  S
O1906      C1915   1.287       .  A
O1906     Ni1929   1.956       .  S
O1907     Ni1911   1.931       .  S
O1907     Ni1923   1.943       .  S
O1907      H1930   0.966       .  S
C1908      O1925   1.277       .  A
C1908      C2320   1.458   1_545  S
O1909      C1915   1.274       .  A
O1909     Ni1928   1.936       .  S
O1910      C1912   1.274       .  A
O1910     Ni1928   1.907       .  S
Ni1911     O1914   1.888       .  S
Ni1911     O1916   1.896       .  S
O1913      C1919   1.285       .  A
O1913     Ni1929   1.929       .  S
C1915      C1952   1.507       .  S
O1916      C1918   1.275       .  A
O1917     Ni1928   1.922       .  S
C1919      C2068   1.457       .  S
H1920      O1921   0.965       .  S
O1921     Ni1929   1.904       .  S
O1921     Ni1928   1.893       .  S
O1922     Ni1923   1.933       .  S
Ni1923     O1927   1.943       .  S
Ni1923     O1925   1.907       .  S
O1924     Ni1929   1.931       .  S
C1926      O1927   1.277       .  A
C1926      C1941   1.470       .  S
O1931      C1952   1.267       .  A
O1931     Ni1937   1.925       .  S
O1932      C1941   1.275       .  A
O1932     Ni1955   1.911       .  S
O1933     Ni1937   1.925       .  S
O1933     Ni1955   1.949       .  S
O1933     Ni1949   1.950       .  S
O1933      H1956   0.966       .  S
C1934      O1951   1.281       .  A
C1934      O1943   1.272       .  A
C1934      C2706   1.445   1_545  S
O1935      C1941   1.266       .  A
O1935     Ni1954   1.921       .  S
O1936      C1938   1.270       .  A
O1936     Ni1954   1.899       .  S
Ni1937     O1940   1.916       .  S
Ni1937     O1942   1.899       .  S
C1938      O1948   1.278       .  A
O1939      C1945   1.273       .  A
O1939     Ni1955   1.934       .  S
O1940      C1945   1.258       .  A
O1942      C1944   1.276       .  A
O1943     Ni1954   1.899       .  S
C1944      O1950   1.275       .  A
C1945      C2094   1.489       .  S
H1946      O1947   0.966       .  S
O1947     Ni1955   1.887       .  S
O1947     Ni1949   1.908       .  S
O1947     Ni1954   1.897       .  S
O1948     Ni1949   1.940       .  S
Ni1949     O1953   1.961       .  S
Ni1949     O1951   1.914       .  S
O1950     Ni1955   1.936       .  S
C1952      O1953   1.283       .  A
O1957      C1978   1.257       .  A
O1957     Ni1963   1.897       .  S
O1958      C1967   1.280       .  A
O1958     Ni1981   1.939       .  S
O1959     Ni1963   1.925       .  S
O1959     Ni1975   1.947       .  S
O1959      H1982   0.966       .  S
C1960      O1977   1.277       .  A
C1960      C2268   1.458       .  S
O1961      C1967   1.268       .  A
O1961     Ni1980   1.924       .  S
O1962      C1964   1.269       .  A
O1962     Ni1980   1.898       .  S
Ni1963     O1966   1.866       .  S
Ni1963     O1968   1.908       .  S
O1965      C1971   1.277       .  A
O1965     Ni1981   1.951       .  S
C1967      C2004   1.488       .  S
O1968      C1970   1.275       .  A
O1969     Ni1980   1.915       .  S
H1972      O1973   0.966       .  S
O1973     Ni1981   1.904       .  S
O1973     Ni1980   1.894       .  S
O1974     Ni1975   1.957       .  S
Ni1975     O1979   1.952       .  S
Ni1975     O1977   1.914       .  S
O1976     Ni1981   1.921       .  S
C1978      O1979   1.278       .  A
C1978      C1993   1.488       .  S
O1983      C2004   1.264       .  A
O1983     Ni1989   1.918       .  S
O1984      C1993   1.283       .  A
O1984     Ni2007   1.939       .  S
O1985     Ni1989   1.927       .  S
O1985     Ni2007   1.948       .  S
O1985     Ni2001   1.918       .  S
O1985      H2008   0.966       .  S
C1986      O2003   1.279       .  A
C1986      O1995   1.274       .  A
C1986      C2654   1.445       .  S
O1987      C1993   1.268       .  A
O1987     Ni2006   1.923       .  S
O1988      C1990   1.271       .  A
O1988     Ni2006   1.899       .  S
Ni1989     O1992   1.902       .  S
Ni1989     O1994   1.917       .  S
C1990      O2000   1.281       .  A
O1991      C1997   1.278       .  A
O1991     Ni2007   1.935       .  S
O1992      C1997   1.262       .  A
O1994      C1996   1.272       .  A
O1995     Ni2006   1.910       .  S
C1996      O2002   1.272       .  A
C1997      C2101   1.476       .  S
H1998      O1999   0.966       .  S
O1999     Ni2007   1.902       .  S
O1999     Ni2001   1.912       .  S
O1999     Ni2006   1.891       .  S
O2000     Ni2001   1.957       .  S
Ni2001     O2005   1.947       .  S
Ni2001     O2003   1.903       .  S
O2002     Ni2007   1.924       .  S
C2004      O2005   1.279       .  A
O2009      C2030   1.261       .  A
O2009     Ni2015   1.905       .  S
O2010      C2019   1.290       .  A
O2010     Ni2033   1.942       .  S
O2011     Ni2015   1.883       .  S
O2011     Ni2027   1.902       .  S
O2011      H2034   0.966       .  S
C2012      O2029   1.283       .  A
C2012      C2587   1.453       .  S
O2013      C2019   1.276       .  A
O2013     Ni2032   1.924       .  S
O2014     Ni2032   1.907       .  S
Ni2015     O2018   1.891   1_556  S
Ni2015     O2020   1.944       .  S
C2016      O2026   1.281   1_554  A
O2017      C2023   1.278       .  A
O2017     Ni2033   2.017       .  S
C2019      C2056   1.487       .  S
O2020      C2022   1.276   1_556  A
O2021     Ni2032   1.904       .  S
H2024      O2025   0.967       .  S
O2025     Ni2033   1.903       .  S
O2025     Ni2032   1.878       .  S
O2026     Ni2027   1.987       .  S
Ni2027     O2031   1.973       .  S
Ni2027     O2029   1.955       .  S
O2028     Ni2033   1.878       .  S
C2030      O2031   1.292       .  A
C2030      C2045   1.494       .  S
O2035      C2056   1.260       .  A
O2035     Ni2041   1.901       .  S
O2036      C2045   1.296       .  A
O2036     Ni2059   1.959       .  S
O2037     Ni2041   1.883       .  S
O2037     Ni2059   1.976       .  S
O2037     Ni2053   1.900       .  S
O2037      H2060   0.966       .  S
C2038      O2055   1.282       .  A
C2038      O2047   1.259       .  A
C2038      C2613   1.448       .  S
O2039      C2045   1.272       .  A
O2039     Ni2058   1.915       .  S
O2040      C2042   1.266       .  A
O2040     Ni2058   1.907       .  S
Ni2041     O2044   1.887       .  S
Ni2041     O2046   1.945       .  S
C2042      O2052   1.279       .  A
O2043      C2049   1.280       .  A
O2043     Ni2059   2.004       .  S
O2044      C2049   1.246       .  A
O2046      C2048   1.276       .  A
O2047     Ni2058   1.898       .  S
C2048      O2054   1.271       .  A
C2049      C2100   1.495       .  S
H2050      O2051   0.967       .  S
O2051     Ni2059   1.903       .  S
O2051     Ni2053   1.947       .  S
O2051     Ni2058   1.885       .  S
O2052     Ni2053   1.983       .  S
Ni2053     O2057   1.965       .  S
Ni2053     O2055   1.950       .  S
O2054     Ni2059   1.906       .  S
C2056      O2057   1.287       .  A
O2061      C2082   1.270       .  A
O2061     Ni2067   1.940       .  S
O2062      C2071   1.266       .  A
O2062     Ni2085   1.848       .  S
O2063     Ni2067   1.887       .  S
O2063      H2086   0.966       .  S
C2064      O2081   1.255       .  A
O2065      C2071   1.279       .  A
O2066      C2068   1.240       .  A
Ni2067     O2070   1.959       .  S
O2069      C2075   1.278       .  A
O2069     Ni2085   1.905       .  S
C2071      C2125   1.490       .  S
O2072      C2074   1.262   1_556  A
O2073     Ni2084   1.994       .  S
H2076      O2077   0.966       .  S
O2077     Ni2084   1.896       .  S
Ni2079     O2081   1.890   1_556  S
C2082      O2083   1.269       .  A
C2082      C2116   1.481       .  S
O2087      C2108   1.254       .  A
O2088      C2097   1.253       .  A
O2089     Ni2093   1.925       .  S
O2089     Ni2111   1.881       .  S
O2089      H2112   0.965       .  S
C2090      O2107   1.258       .  A
C2090      O2099   1.283       .  A
O2091      C2097   1.265       .  A
O2091     Ni2110   1.912   1_455  S
O2092      C2094   1.266       .  A
Ni2093     O2096   1.916       .  S
C2094      O2104   1.290       .  A
O2095      C2101   1.279       .  A
O2095     Ni2111   1.933       .  S
O2096      C2101   1.271       .  A
C2097      C2113   1.469   1_455  S
O2098      C2100   1.268       .  A
O2099     Ni2110   1.975       .  S
C2100      O2106   1.274       .  A
H2102      O2103   0.963       .  S
O2103     Ni2105   1.859       .  S
O2103     Ni2110   1.942       .  S
Ni2105     O2109   1.903       .  S
Ni2105     O2107   1.896       .  S
C2108      O2109   1.243       .  A
C2108      C2128   1.460   1_655  S
C2113      C2118   1.432       .  A
C2114      C2115   1.398       .  A
C2114      H2123   1.080       .  S
C2115      C2116   1.400       .  A
C2115      S2119   1.796       .  S
C2117      C2118   1.402       .  A
C2117      H2124   1.084       .  S
C2118      S2120   1.808       .  S
S2119      H2122   1.408       .  S
S2120      H2121   1.406   1_655  S
C2125      C2130   1.401       .  A
C2126      C2127   1.407       .  A
C2126      H2135   1.083       .  S
C2127      C2128   1.427       .  A
C2127      S2131   1.817   1_455  S
C2129      C2130   1.401       .  A
C2129      H2136   1.081       .  S
C2130      S2132   1.796       .  S
S2131      H2134   1.408       .  S
S2132      H2133   1.408       .  S
C2137      C2858   1.403       .  A
C2137      C2142   1.419       .  A
C2138      C2857   1.403       .  A
C2138      C2139   1.411       .  A
C2138      H2147   1.082       .  S
C2139      C2140   1.419       .  A
C2139      S2143   1.795       .  S
C2140      C2141   1.401       .  A
C2141      C2862   1.407       .  A
C2141      H2148   1.082       .  S
C2142      C2861   1.407       .  A
C2142      S2144   1.792       .  S
S2143      H2146   1.408       .  S
S2144      H2145   1.406       .  S
C2149      C2150   1.417       .  A
C2149      C2874   1.399       .  A
C2150      C2151   1.414       .  A
C2150      H2159   1.081       .  S
C2151      C2872   1.406       .  A
C2151      S2155   1.796       .  S
C2152      C2871   1.406       .  A
C2152      C2153   1.415       .  A
C2153      C2154   1.406       .  A
C2153      H2160   1.080       .  S
C2154      C2869   1.399       .  A
C2154      S2156   1.788       .  S
S2155      H2158   1.404       .  S
S2156      H2157   1.409       .  S
O2161      C2182   1.268       .  A
O2162      C2171   1.257       .  A
O2162     Ni2185   1.839       .  S
O2163     Ni2167   1.874       .  S
O2163     Ni2545   1.842       .  S
O2163      H2186   0.965       .  S
C2164      O2181   1.296       .  A
C2164      O2533   1.278       .  A
C2164      C2376   1.487       .  S
O2165      C2171   1.270       .  A
O2166      C2168   1.277       .  A
Ni2167     O2170   1.958       .  S
C2168      O2538   1.263   1_554  A
C2168      C2586   1.483       .  S
O2169      C2175   1.274   1_554  A
O2169     Ni2185   1.908       .  S
O2170      C2535   1.286       .  A
C2171      C2512   1.486       .  S
O2172      C2174   1.266       .  A
O2173      C2524   1.278       .  A
O2173     Ni2184   1.913       .  S
C2174      O2540   1.275       .  A
C2174      C2324   1.483       .  S
C2175      O2530   1.286       .  A
C2175      C2272   1.474       .  S
H2176      O2177   0.966       .  S
O2177     Ni2539   1.893   1_554  S
O2177     Ni2184   1.898       .  S
O2178      C2528   1.263       .  A
Ni2179     O2183   1.932   1_565  S
Ni2179     O2181   1.975       .  S
Ni2179     O2537   1.893       .  S
O2180      C2534   1.275   1_554  A
C2182      O2183   1.261       .  A
C2182      C2500   1.493       .  S
Ni2185     O2523   1.842   1_554  S
O2187      C2208   1.267       .  A
O2188      C2197   1.258       .  A
O2188     Ni2211   1.842       .  S
O2189     Ni2193   1.867       .  S
O2189     Ni2211   1.841       .  S
O2189      H2212   0.966       .  S
C2190      O2207   1.297       .  A
C2190      O2199   1.281       .  A
C2190      C2402   1.485       .  S
O2191      C2197   1.272       .  A
O2192      C2194   1.273       .  A
Ni2193     O2196   1.956       .  S
C2194      O2204   1.264       .  A
C2194      C2252   1.475       .  S
O2195      C2201   1.274       .  A
O2195     Ni2211   1.905       .  S
O2196      C2201   1.284       .  A
C2197      C2497   1.492       .  S
O2198      C2200   1.263       .  A
O2199     Ni2210   1.917       .  S
C2200      O2206   1.276       .  A
C2200      C2350   1.483       .  S
C2201      C2298   1.472       .  S
H2202      O2203   0.966       .  S
O2203     Ni2205   1.895       .  S
O2203     Ni2210   1.894       .  S
Ni2205     O2209   1.941   1_565  S
Ni2205     O2207   1.976       .  S
C2208      O2209   1.263       .  A
C2208      C2509   1.504       .  S
O2213      C2234   1.279       .  A
O2213     Ni2219   1.964       .  S
O2214      C2223   1.275       .  A
O2214     Ni2237   1.932       .  S
O2215     Ni2219   1.889       .  S
O2215     Ni2597   1.911   1_554  S
O2215     Ni2231   1.894       .  S
O2215      H2238   0.965       .  S
C2216      O2593   1.264       .  A
C2216      O2225   1.277       .  A
C2216      C2424   1.488       .  S
O2217      C2223   1.276       .  A
O2217     Ni2236   1.951       .  S
O2218      C2220   1.264       .  A
O2218     Ni2236   1.875       .  S
Ni2219     O2222   1.928       .  S
Ni2219     O2224   1.898       .  S
C2220      O2590   1.280       .  A
O2221      C2227   1.265       .  A
O2221     Ni2237   1.902       .  S
O2222      C2587   1.282   1_554  A
C2223      C2260   1.508       .  S
O2224      C2586   1.272       .  A
O2225     Ni2236   1.961       .  S
C2226      O2584   1.272       .  A
C2226      O2232   1.289       .  A
C2226      C2528   1.483       .  S
C2227      O2582   1.282       .  A
H2228      O2229   0.966       .  S
O2229     Ni2237   1.939       .  S
O2229     Ni2591   1.945       .  S
O2229     Ni2236   1.930       .  S
O2230      C2580   1.280   1_554  A
O2230     Ni2231   1.949       .  S
Ni2231     O2235   1.923       .  S
Ni2231     O2233   1.906       .  S
Ni2231     O2589   1.946   1_554  S
O2232     Ni2237   1.965       .  S
O2233      C2576   1.264       .  A
C2234      O2235   1.273       .  A
C2234      C2249   1.506       .  S
Ni2237     O2575   1.910       .  S
O2239      C2260   1.276       .  A
O2239     Ni2245   1.958       .  S
O2240      C2249   1.271       .  A
O2240     Ni2263   1.926       .  S
O2241     Ni2245   1.888       .  S
O2241     Ni2263   1.910       .  S
O2241     Ni2257   1.890       .  S
O2241      H2264   0.966       .  S
C2242      O2259   1.264       .  A
C2242      O2251   1.277       .  A
C2242      C2450   1.484       .  S
O2243      C2249   1.277       .  A
O2243     Ni2262   1.955       .  S
O2244      C2246   1.266       .  A
O2244     Ni2262   1.879       .  S
Ni2245     O2248   1.927       .  S
Ni2245     O2250   1.891       .  S
C2246      O2256   1.284       .  A
O2247      C2253   1.263       .  A
O2247     Ni2263   1.897       .  S
O2248      C2253   1.282       .  A
O2250      C2252   1.269       .  A
O2251     Ni2262   1.957       .  S
C2252      O2258   1.284       .  A
H2254      O2255   0.966       .  S
O2255     Ni2263   1.934       .  S
O2255     Ni2257   1.946       .  S
O2255     Ni2262   1.927       .  S
O2256     Ni2257   1.958       .  S
Ni2257     O2261   1.933       .  S
Ni2257     O2259   1.902       .  S
O2258     Ni2263   1.955       .  S
C2260      O2261   1.278       .  A
O2265      C2286   1.256       .  A
O2265     Ni2271   1.879       .  S
O2266      C2275   1.287       .  A
O2266     Ni2289   1.956       .  S
O2267     Ni2271   1.931       .  S
O2267     Ni2649   1.932       .  S
O2267     Ni2283   1.943       .  S
O2267      H2290   0.966       .  S
C2268      O2285   1.277       .  A
C2268      O2637   1.277       .  A
O2269      C2275   1.274       .  A
O2269     Ni2288   1.936       .  S
O2270      C2272   1.274   1_554  A
O2270     Ni2288   1.907       .  S
Ni2271     O2274   1.888       .  S
Ni2271     O2276   1.896       .  S
C2272      O2642   1.278       .  A
O2273      C2279   1.285   1_554  A
O2273     Ni2289   1.929       .  S
O2274      C2639   1.252       .  A
C2275      C2312   1.506       .  S
O2276      C2278   1.275       .  A
O2277      C2628   1.277   1_554  A
O2277     Ni2288   1.923       .  S
C2278      O2644   1.275       .  A
C2279      O2634   1.252       .  A
C2279      C2428   1.457   1_556  S
H2280      O2281   0.965       .  S
O2281     Ni2289   1.904       .  S
O2281     Ni2643   1.904   1_554  S
O2281     Ni2288   1.893       .  S
O2282      C2632   1.278       .  A
O2282     Ni2283   1.933       .  S
Ni2283     O2287   1.943       .  S
Ni2283     O2285   1.907       .  S
Ni2283     O2641   1.904       .  S
O2284      C2638   1.275   1_554  A
O2284     Ni2289   1.931       .  S
C2286      O2287   1.277       .  A
C2286      C2301   1.470       .  S
Ni2289     O2627   1.931   1_554  S
O2291      C2312   1.267       .  A
O2291     Ni2297   1.925       .  S
O2292      C2301   1.275       .  A
O2292     Ni2315   1.911       .  S
O2293     Ni2297   1.925       .  S
O2293     Ni2315   1.949       .  S
O2293     Ni2309   1.950       .  S
O2293      H2316   0.966       .  S
C2294      O2311   1.281       .  A
C2294      O2303   1.272       .  A
O2295      C2301   1.266       .  A
O2295     Ni2314   1.921       .  S
O2296      C2298   1.270       .  A
O2296     Ni2314   1.899       .  S
Ni2297     O2300   1.916       .  S
Ni2297     O2302   1.899       .  S
C2298      O2308   1.278       .  A
O2299      C2305   1.273       .  A
O2299     Ni2315   1.934       .  S
O2300      C2305   1.258       .  A
O2302      C2304   1.276       .  A
O2303     Ni2314   1.899       .  S
C2304      O2310   1.275       .  A
C2305      C2454   1.489       .  S
H2306      O2307   0.966       .  S
O2307     Ni2315   1.887       .  S
O2307     Ni2309   1.908       .  S
O2307     Ni2314   1.897       .  S
O2308     Ni2309   1.940       .  S
Ni2309     O2313   1.961       .  S
Ni2309     O2311   1.913       .  S
O2310     Ni2315   1.936       .  S
C2312      O2313   1.283       .  A
O2317      C2338   1.257       .  A
O2317     Ni2323   1.897       .  S
O2318      C2327   1.280       .  A
O2318     Ni2341   1.939       .  S
O2319     Ni2323   1.925       .  S
O2319     Ni2701   1.972   1_554  S
O2319     Ni2335   1.947       .  S
O2319      H2342   0.966       .  S
C2320      O2337   1.277   1_556  A
C2320      O2689   1.275       .  A
O2321      C2327   1.268       .  A
O2321     Ni2340   1.924       .  S
O2322      C2324   1.269       .  A
O2322     Ni2340   1.897       .  S
Ni2323     O2326   1.867       .  S
Ni2323     O2328   1.908       .  S
C2324      O2694   1.280       .  A
O2325      C2331   1.277       .  A
O2325     Ni2341   1.951       .  S
O2326      C2691   1.256   1_554  A
C2327      C2364   1.488       .  S
O2328      C2330   1.275       .  A
O2329      C2680   1.275       .  A
O2329     Ni2340   1.915       .  S
C2330      O2696   1.272   1_554  A
C2331      O2686   1.256       .  A
C2331      C2795   1.482       .  S
H2332      O2333   0.966       .  S
O2333     Ni2341   1.903       .  S
O2333     Ni2695   1.913       .  S
O2333     Ni2340   1.894       .  S
O2334      C2684   1.281   1_554  A
O2334     Ni2335   1.956       .  S
Ni2335     O2339   1.953       .  S
Ni2335     O2337   1.914       .  S
Ni2335     O2693   1.913   1_554  S
O2336      C2690   1.272       .  A
O2336     Ni2341   1.922       .  S
C2338      O2339   1.278       .  A
C2338      C2353   1.489       .  S
Ni2341     O2679   1.973       .  S
O2343      C2364   1.264       .  A
O2343     Ni2349   1.918       .  S
O2344      C2353   1.284       .  A
O2344     Ni2367   1.939       .  S
O2345     Ni2349   1.925       .  S
O2345     Ni2367   1.946       .  S
O2345     Ni2361   1.918       .  S
O2345      H2368   0.966       .  S
C2346      O2363   1.280       .  A
C2346      O2355   1.274       .  A
O2347      C2353   1.269       .  A
O2347     Ni2366   1.923       .  S
O2348      C2350   1.272       .  A
O2348     Ni2366   1.899       .  S
Ni2349     O2352   1.902       .  S
Ni2349     O2354   1.917       .  S
C2350      O2360   1.282       .  A
O2351      C2357   1.278       .  A
O2351     Ni2367   1.935       .  S
O2352      C2357   1.262       .  A
O2354      C2356   1.272       .  A
O2355     Ni2366   1.910       .  S
C2356      O2362   1.272       .  A
C2357      C2461   1.476       .  S
H2358      O2359   0.966       .  S
O2359     Ni2367   1.903       .  S
O2359     Ni2361   1.909       .  S
O2359     Ni2366   1.889       .  S
O2360     Ni2361   1.956       .  S
Ni2361     O2365   1.948       .  S
Ni2361     O2363   1.904       .  S
O2362     Ni2367   1.924       .  S
C2364      O2365   1.280       .  A
O2369      C2390   1.261       .  A
O2369     Ni2375   1.905       .  S
O2370      C2379   1.290       .  A
O2370     Ni2393   1.942       .  S
O2371     Ni2375   1.883       .  S
O2371     Ni2753   1.987       .  S
O2371     Ni2387   1.902       .  S
O2371      H2394   0.966       .  S
C2372      O2389   1.282       .  A
C2372      O2741   1.260       .  A
O2373      C2379   1.276       .  A
O2373     Ni2392   1.924       .  S
O2374      C2736   1.267       .  A
O2374     Ni2392   1.907       .  S
Ni2375     O2378   1.891       .  S
Ni2375     O2380   1.944       .  S
C2376      O2734   1.267       .  A
C2376      O2386   1.281       .  A
O2377      C2383   1.278       .  A
O2377     Ni2393   2.017       .  S
O2378      C2743   1.245       .  A
C2379      C2416   1.487       .  S
O2380      C2382   1.276       .  A
O2381      C2732   1.260   1_554  A
O2381     Ni2392   1.904       .  S
C2382      O2748   1.260       .  A
C2383      O2738   1.245       .  A
C2383      C2794   1.503       .  S
H2384      O2385   0.967       .  S
O2385     Ni2393   1.904       .  S
O2385     Ni2747   1.948   1_554  S
O2385     Ni2392   1.878       .  S
O2386     Ni2387   1.987       .  S
Ni2387     O2391   1.973       .  S
Ni2387     O2389   1.955       .  S
Ni2387     O2745   1.948       .  S
O2388      C2742   1.260       .  A
O2388     Ni2393   1.879       .  S
C2390      O2391   1.291       .  A
C2390      C2405   1.494       .  S
Ni2393     O2731   1.987   1_554  S
O2395      C2416   1.260       .  A
O2395     Ni2401   1.901       .  S
O2396      C2405   1.295       .  A
O2396     Ni2419   1.959       .  S
O2397     Ni2401   1.883       .  S
O2397     Ni2419   1.977       .  S
O2397     Ni2413   1.900       .  S
O2397      H2420   0.966       .  S
C2398      O2415   1.282       .  A
C2398      O2407   1.260       .  A
O2399      C2405   1.272       .  A
O2399     Ni2418   1.915       .  S
O2400      C2402   1.266       .  A
O2400     Ni2418   1.907       .  S
Ni2401     O2404   1.887       .  S
Ni2401     O2406   1.944       .  S
C2402      O2412   1.278       .  A
O2403      C2409   1.280       .  A
O2403     Ni2419   2.004       .  S
O2404      C2409   1.246       .  A
O2406      C2408   1.276       .  A
O2407     Ni2418   1.898       .  S
C2408      O2414   1.271       .  A
C2409      C2460   1.495       .  S
H2410      O2411   0.967       .  S
O2411     Ni2419   1.903       .  S
O2411     Ni2413   1.946       .  S
O2411     Ni2418   1.885       .  S
O2412     Ni2413   1.982       .  S
Ni2413     O2417   1.966       .  S
Ni2413     O2415   1.949       .  S
O2414     Ni2419   1.905       .  S
C2416      O2417   1.287       .  A
O2421      C2442   1.270       .  A
O2421     Ni2427   1.940       .  S
O2422      C2431   1.266       .  A
O2422     Ni2445   1.848       .  S
O2423     Ni2427   1.887       .  S
O2423     Ni2805   1.853       .  S
O2423      H2446   0.966       .  S
C2424      O2441   1.256       .  A
C2424      O2793   1.287       .  A
O2425      C2431   1.279       .  A
O2426      C2428   1.241       .  A
Ni2427     O2430   1.959       .  S
C2428      O2798   1.295   1_554  A
O2429      C2435   1.278   1_554  A
O2429     Ni2445   1.905       .  S
O2430      C2795   1.282       .  A
C2431      C2485   1.490       .  S
O2432      C2434   1.262       .  A
O2433      C2784   1.287       .  A
O2433     Ni2444   1.994       .  S
C2434      O2800   1.278       .  A
C2434      C2743   1.503       .  S
C2435      O2790   1.282       .  A
C2435      C2691   1.482       .  S
H2436      O2437   0.966       .  S
O2437     Ni2799   1.883       .  S
O2437     Ni2444   1.896       .  S
O2438      C2788   1.295       .  A
Ni2439     O2441   1.890       .  S
Ni2439     O2797   1.883       .  S
O2440      C2794   1.278       .  A
C2442      O2443   1.269       .  A
C2442      C2476   1.481       .  S
Ni2445     O2783   1.853   1_554  S
O2447      C2468   1.254       .  A
O2448      C2457   1.252       .  A
O2449     Ni2453   1.925       .  S
O2449     Ni2471   1.880       .  S
O2449      H2472   0.965       .  S
C2450      O2467   1.258       .  A
C2450      O2459   1.283       .  A
O2451      C2457   1.265       .  A
O2451     Ni2470   1.912   1_455  S
O2452      C2454   1.266       .  A
Ni2453     O2456   1.916       .  S
C2454      O2464   1.290       .  A
O2455      C2461   1.279       .  A
O2455     Ni2471   1.932       .  S
O2456      C2461   1.271       .  A
C2457      C2473   1.469   1_455  S
O2458      C2460   1.268       .  A
O2459     Ni2470   1.975       .  S
C2460      O2466   1.274       .  A
H2462      O2463   0.963       .  S
O2463     Ni2465   1.859       .  S
O2463     Ni2470   1.942       .  S
Ni2465     O2469   1.903       .  S
Ni2465     O2467   1.896       .  S
C2468      O2469   1.243       .  A
C2468      C2488   1.460   1_655  S
C2473      C2478   1.432       .  A
C2474      C2475   1.398       .  A
C2474      H2483   1.080       .  S
C2475      C2476   1.400       .  A
C2475      S2479   1.796       .  S
C2477      C2478   1.402       .  A
C2477      H2484   1.084       .  S
C2478      S2480   1.808       .  S
S2479      H2482   1.408       .  S
S2480      H2481   1.406   1_655  S
C2485      C2490   1.401       .  A
C2486      C2487   1.407       .  A
C2486      H2495   1.083       .  S
C2487      C2488   1.427       .  A
C2487      S2491   1.817   1_455  S
C2489      C2490   1.401       .  A
C2489      H2496   1.081       .  S
C2490      S2492   1.796       .  S
S2491      H2494   1.408       .  S
S2492      H2493   1.408       .  S
C2497      C2502   1.419       .  A
C2498      C2499   1.411       .  A
C2498      H2507   1.082       .  S
C2499      C2500   1.419       .  A
C2499      S2503   1.795       .  S
C2500      C2501   1.401       .  A
C2501      H2508   1.082       .  S
C2502      S2504   1.792       .  S
S2503      H2506   1.408       .  S
S2504      H2505   1.406       .  S
C2509      C2510   1.417       .  A
C2510      C2511   1.414       .  A
C2510      H2519   1.081       .  S
C2511      S2515   1.796       .  S
C2512      C2513   1.415       .  A
C2513      C2514   1.406       .  A
C2513      H2520   1.080       .  S
C2514      S2516   1.788       .  S
S2515      H2518   1.404       .  S
S2516      H2517   1.409       .  S
O2521      C2542   1.268       .  A
O2522      C2531   1.257       .  A
O2522     Ni2545   1.839       .  S
O2523     Ni2527   1.874       .  S
O2523      H2546   0.965       .  S
C2524      O2541   1.296   1_554  A
C2524      C2736   1.486       .  S
O2525      C2531   1.270       .  A
O2526      C2528   1.277       .  A
Ni2527     O2530   1.958       .  S
O2529      C2535   1.274       .  A
O2529     Ni2545   1.908       .  S
C2531      C2872   1.486       .  S
O2532      C2534   1.266       .  A
O2533     Ni2544   1.914       .  S
C2534      C2684   1.483       .  S
C2535      C2632   1.474       .  S
H2536      O2537   0.966       .  S
O2537     Ni2544   1.898       .  S
Ni2539     O2543   1.932   1_565  S
Ni2539     O2541   1.975       .  S
C2542      O2543   1.261       .  A
C2542      C2860   1.493       .  S
O2547      C2568   1.267       .  A
O2548      C2557   1.258       .  A
O2548     Ni2571   1.842       .  S
O2549     Ni2553   1.867       .  S
O2549     Ni2571   1.841       .  S
O2549      H2572   0.966       .  S
C2550      O2567   1.297       .  A
C2550      O2559   1.281       .  A
C2550      C2762   1.486       .  S
O2551      C2557   1.272       .  A
O2552      C2554   1.273       .  A
Ni2553     O2556   1.956       .  S
C2554      O2564   1.265       .  A
C2554      C2612   1.475       .  S
O2555      C2561   1.274       .  A
O2555     Ni2571   1.905       .  S
O2556      C2561   1.284       .  A
C2557      C2857   1.492       .  S
O2558      C2560   1.263       .  A
O2559     Ni2570   1.917       .  S
C2560      O2566   1.276       .  A
C2560      C2710   1.483       .  S
C2561      C2658   1.472       .  S
H2562      O2563   0.966       .  S
O2563     Ni2565   1.895       .  S
O2563     Ni2570   1.894       .  S
Ni2565     O2569   1.941   1_565  S
Ni2565     O2567   1.975       .  S
C2568      O2569   1.263       .  A
C2568      C2869   1.504       .  S
O2573      C2594   1.279       .  A
O2573     Ni2579   1.965       .  S
O2574      C2583   1.275       .  A
O2574     Ni2597   1.933       .  S
O2575     Ni2579   1.888       .  S
O2575     Ni2591   1.894       .  S
O2575      H2598   0.965       .  S
C2576      O2585   1.277   1_554  A
C2576      C2784   1.488       .  S
O2577      C2583   1.276       .  A
O2577     Ni2596   1.951       .  S
O2578      C2580   1.264       .  A
O2578     Ni2596   1.875       .  S
Ni2579     O2582   1.928       .  S
Ni2579     O2584   1.898       .  S
O2581      C2587   1.265       .  A
O2581     Ni2597   1.902       .  S
C2583      C2620   1.508       .  S
O2585     Ni2596   1.961       .  S
C2586      O2592   1.289   1_554  A
H2588      O2589   0.966       .  S
O2589     Ni2597   1.939       .  S
O2589     Ni2596   1.930       .  S
O2590     Ni2591   1.949       .  S
Ni2591     O2595   1.922       .  S
Ni2591     O2593   1.906       .  S
O2592     Ni2597   1.965       .  S
C2594      O2595   1.273       .  A
C2594      C2609   1.506       .  S
O2599      C2620   1.276       .  A
O2599     Ni2605   1.959       .  S
O2600      C2609   1.271       .  A
O2600     Ni2623   1.926       .  S
O2601     Ni2605   1.888       .  S
O2601     Ni2623   1.910       .  S
O2601     Ni2617   1.890       .  S
O2601      H2624   0.965       .  S
C2602      O2619   1.264       .  A
C2602      O2611   1.277       .  A
C2602      C2810   1.484       .  S
O2603      C2609   1.277       .  A
O2603     Ni2622   1.956       .  S
O2604      C2606   1.266       .  A
O2604     Ni2622   1.879       .  S
Ni2605     O2608   1.928       .  S
Ni2605     O2610   1.892       .  S
C2606      O2616   1.284       .  A
O2607      C2613   1.263       .  A
O2607     Ni2623   1.896       .  S
O2608      C2613   1.283       .  A
O2610      C2612   1.269       .  A
O2611     Ni2622   1.958       .  S
C2612      O2618   1.284       .  A
H2614      O2615   0.966       .  S
O2615     Ni2623   1.934       .  S
O2615     Ni2617   1.945       .  S
O2615     Ni2622   1.926       .  S
O2616     Ni2617   1.958       .  S
Ni2617     O2621   1.933       .  S
Ni2617     O2619   1.902       .  S
O2618     Ni2623   1.955       .  S
C2620      O2621   1.278       .  A
O2625      C2646   1.256       .  A
O2625     Ni2631   1.879       .  S
O2626      C2635   1.287       .  A
O2626     Ni2649   1.956       .  S
O2627     Ni2631   1.931       .  S
O2627     Ni2643   1.943       .  S
O2627      H2650   0.966       .  S
C2628      O2645   1.277       .  A
O2629      C2635   1.274       .  A
O2629     Ni2648   1.936       .  S
O2630      C2632   1.274       .  A
O2630     Ni2648   1.907       .  S
Ni2631     O2634   1.888       .  S
Ni2631     O2636   1.896       .  S
O2633      C2639   1.285       .  A
O2633     Ni2649   1.929       .  S
C2635      C2672   1.506       .  S
O2636      C2638   1.275       .  A
O2637     Ni2648   1.923       .  S
C2639      C2788   1.457       .  S
H2640      O2641   0.965       .  S
O2641     Ni2649   1.904       .  S
O2641     Ni2648   1.893       .  S
O2642     Ni2643   1.932       .  S
Ni2643     O2647   1.943       .  S
Ni2643     O2645   1.907       .  S
O2644     Ni2649   1.931       .  S
C2646      O2647   1.277       .  A
C2646      C2661   1.471       .  S
O2651      C2672   1.267       .  A
O2651     Ni2657   1.925       .  S
O2652      C2661   1.275       .  A
O2652     Ni2675   1.911       .  S
O2653     Ni2657   1.925       .  S
O2653     Ni2675   1.949       .  S
O2653     Ni2669   1.950       .  S
O2653      H2676   0.966       .  S
C2654      O2671   1.281       .  A
C2654      O2663   1.272       .  A
O2655      C2661   1.266       .  A
O2655     Ni2674   1.921       .  S
O2656      C2658   1.270       .  A
O2656     Ni2674   1.899       .  S
Ni2657     O2660   1.916       .  S
Ni2657     O2662   1.899       .  S
C2658      O2668   1.278       .  A
O2659      C2665   1.273       .  A
O2659     Ni2675   1.934       .  S
O2660      C2665   1.258       .  A
O2662      C2664   1.276       .  A
O2663     Ni2674   1.899       .  S
C2664      O2670   1.275       .  A
C2665      C2814   1.489       .  S
H2666      O2667   0.966       .  S
O2667     Ni2675   1.887       .  S
O2667     Ni2669   1.908       .  S
O2667     Ni2674   1.897       .  S
O2668     Ni2669   1.940       .  S
Ni2669     O2673   1.961       .  S
Ni2669     O2671   1.914       .  S
O2670     Ni2675   1.936       .  S
C2672      O2673   1.283       .  A
O2677      C2698   1.256       .  A
O2677     Ni2683   1.897       .  S
O2678      C2687   1.280       .  A
O2678     Ni2701   1.939       .  S
O2679     Ni2683   1.925       .  S
O2679     Ni2695   1.947       .  S
O2679      H2702   0.966       .  S
C2680      O2697   1.277       .  A
O2681      C2687   1.268       .  A
O2681     Ni2700   1.924       .  S
O2682      C2684   1.269       .  A
O2682     Ni2700   1.898       .  S
Ni2683     O2686   1.866       .  S
Ni2683     O2688   1.908       .  S
O2685      C2691   1.277       .  A
O2685     Ni2701   1.951       .  S
C2687      C2724   1.488       .  S
O2688      C2690   1.275       .  A
O2689     Ni2700   1.914       .  S
H2692      O2693   0.966       .  S
O2693     Ni2701   1.904       .  S
O2693     Ni2700   1.893       .  S
O2694     Ni2695   1.957       .  S
Ni2695     O2699   1.952       .  S
Ni2695     O2697   1.913       .  S
O2696     Ni2701   1.921       .  S
C2698      O2699   1.278       .  A
C2698      C2713   1.488       .  S
O2703      C2724   1.264       .  A
O2703     Ni2709   1.918       .  S
O2704      C2713   1.283       .  A
O2704     Ni2727   1.939       .  S
O2705     Ni2709   1.927       .  S
O2705     Ni2727   1.949       .  S
O2705     Ni2721   1.917       .  S
O2705      H2728   0.966       .  S
C2706      O2723   1.279       .  A
C2706      O2715   1.273       .  A
O2707      C2713   1.268       .  A
O2707     Ni2726   1.923       .  S
O2708      C2710   1.271       .  A
O2708     Ni2726   1.899       .  S
Ni2709     O2712   1.901       .  S
Ni2709     O2714   1.918       .  S
C2710      O2720   1.281       .  A
O2711      C2717   1.278       .  A
O2711     Ni2727   1.934       .  S
O2712      C2717   1.262       .  A
O2714      C2716   1.272       .  A
O2715     Ni2726   1.910       .  S
C2716      O2722   1.272       .  A
C2717      C2821   1.476       .  S
H2718      O2719   0.966       .  S
O2719     Ni2727   1.902       .  S
O2719     Ni2721   1.913       .  S
O2719     Ni2726   1.891       .  S
O2720     Ni2721   1.957       .  S
Ni2721     O2725   1.948       .  S
Ni2721     O2723   1.903       .  S
O2722     Ni2727   1.924       .  S
C2724      O2725   1.279       .  A
O2729      C2750   1.261       .  A
O2729     Ni2735   1.905       .  S
O2730      C2739   1.290       .  A
O2730     Ni2753   1.943       .  S
O2731     Ni2735   1.883       .  S
O2731     Ni2747   1.902       .  S
O2731      H2754   0.966       .  S
C2732      O2749   1.283       .  A
O2733      C2739   1.276       .  A
O2733     Ni2752   1.925       .  S
O2734     Ni2752   1.907       .  S
Ni2735     O2738   1.891   1_556  S
Ni2735     O2740   1.944       .  S
C2736      O2746   1.281   1_554  A
O2737      C2743   1.278       .  A
O2737     Ni2753   2.017       .  S
C2739      C2776   1.488       .  S
O2740      C2742   1.276   1_556  A
O2741     Ni2752   1.904       .  S
H2744      O2745   0.967       .  S
O2745     Ni2753   1.904       .  S
O2745     Ni2752   1.878       .  S
O2746     Ni2747   1.987       .  S
Ni2747     O2751   1.973       .  S
Ni2747     O2749   1.955       .  S
O2748     Ni2753   1.880       .  S
C2750      O2751   1.292       .  A
C2750      C2765   1.494       .  S
O2755      C2776   1.260       .  A
O2755     Ni2761   1.901       .  S
O2756      C2765   1.296       .  A
O2756     Ni2779   1.960       .  S
O2757     Ni2761   1.883       .  S
O2757     Ni2779   1.977       .  S
O2757     Ni2773   1.900       .  S
O2757      H2780   0.966       .  S
C2758      O2775   1.282       .  A
C2758      O2767   1.259       .  A
O2759      C2765   1.272       .  A
O2759     Ni2778   1.915       .  S
O2760      C2762   1.266       .  A
O2760     Ni2778   1.907       .  S
Ni2761     O2764   1.887       .  S
Ni2761     O2766   1.945       .  S
C2762      O2772   1.279       .  A
O2763      C2769   1.280       .  A
O2763     Ni2779   2.004       .  S
O2764      C2769   1.246       .  A
O2766      C2768   1.276       .  A
O2767     Ni2778   1.898       .  S
C2768      O2774   1.271       .  A
C2769      C2820   1.495       .  S
H2770      O2771   0.967       .  S
O2771     Ni2779   1.903       .  S
O2771     Ni2773   1.947       .  S
O2771     Ni2778   1.885       .  S
O2772     Ni2773   1.984       .  S
Ni2773     O2777   1.966       .  S
Ni2773     O2775   1.950       .  S
O2774     Ni2779   1.906       .  S
C2776      O2777   1.287       .  A
O2781      C2802   1.270       .  A
O2781     Ni2787   1.940       .  S
O2782      C2791   1.266       .  A
O2782     Ni2805   1.848       .  S
O2783     Ni2787   1.887       .  S
O2783      H2806   0.966       .  S
C2784      O2801   1.256       .  A
O2785      C2791   1.279       .  A
O2786      C2788   1.241       .  A
Ni2787     O2790   1.959       .  S
O2789      C2795   1.278       .  A
O2789     Ni2805   1.905       .  S
C2791      C2845   1.490       .  S
O2792      C2794   1.262   1_556  A
O2793     Ni2804   1.994       .  S
H2796      O2797   0.966       .  S
O2797     Ni2804   1.896       .  S
Ni2799     O2801   1.890       .  S
C2802      O2803   1.269       .  A
C2802      C2836   1.481       .  S
O2807      C2828   1.254       .  A
O2808      C2817   1.252       .  A
O2809     Ni2813   1.925       .  S
O2809     Ni2831   1.881       .  S
O2809      H2832   0.965       .  S
C2810      O2827   1.258       .  A
C2810      O2819   1.283       .  A
O2811      C2817   1.265       .  A
O2811     Ni2830   1.912   1_455  S
O2812      C2814   1.266       .  A
Ni2813     O2816   1.916       .  S
C2814      O2824   1.290       .  A
O2815      C2821   1.279       .  A
O2815     Ni2831   1.932       .  S
O2816      C2821   1.271       .  A
C2817      C2833   1.469   1_455  S
O2818      C2820   1.268       .  A
O2819     Ni2830   1.975       .  S
C2820      O2826   1.274       .  A
H2822      O2823   0.963       .  S
O2823     Ni2825   1.859       .  S
O2823     Ni2830   1.942       .  S
Ni2825     O2829   1.903       .  S
Ni2825     O2827   1.896       .  S
C2828      O2829   1.243       .  A
C2828      C2848   1.460   1_655  S
C2833      C2838   1.432       .  A
C2834      C2835   1.398       .  A
C2834      H2843   1.080       .  S
C2835      C2836   1.400       .  A
C2835      S2839   1.796       .  S
C2837      C2838   1.401       .  A
C2837      H2844   1.084       .  S
C2838      S2840   1.808       .  S
S2839      H2842   1.408       .  S
S2840      H2841   1.406   1_655  S
C2845      C2850   1.401       .  A
C2846      C2847   1.407       .  A
C2846      H2855   1.083       .  S
C2847      C2848   1.427       .  A
C2847      S2851   1.817   1_455  S
C2849      C2850   1.401       .  A
C2849      H2856   1.081       .  S
C2850      S2852   1.796       .  S
S2851      H2854   1.408       .  S
S2852      H2853   1.408       .  S
C2857      C2862   1.419       .  A
C2858      C2859   1.411       .  A
C2858      H2867   1.082       .  S
C2859      C2860   1.419       .  A
C2859      S2863   1.795       .  S
C2860      C2861   1.402       .  A
C2861      H2868   1.082       .  S
C2862      S2864   1.792       .  S
S2863      H2866   1.408       .  S
S2864      H2865   1.406       .  S
C2869      C2870   1.417       .  A
C2870      C2871   1.414       .  A
C2870      H2879   1.081       .  S
C2871      S2875   1.796       .  S
C2872      C2873   1.415       .  A
C2873      C2874   1.406       .  A
C2873      H2880   1.080       .  S
C2874      S2876   1.788       .  S
S2875      H2878   1.404       .  S
S2876      H2877   1.409       .  S
