geometry optimzed in LAMMPS
_audit_creation_date              2020-11-30 
_audit_creation_method            'lammps2cif' 
_symmetry_space_group_name_H-M    'P1' 
_symmetry_Int_Tables_number       1 
_symmetry_cell_setting            triclinic 
loop_ 
_symmetry_equiv_pos_as_xyz 
  x,y,z 
_cell_length_a                    52.56251504223763 
_cell_length_b                    30.423740789902276 
_cell_length_c                    49.34661788625818 
_cell_angle_alpha                 79.00245567941936 
_cell_angle_beta                  91.60283160815906 
_cell_angle_gamma                 90.35984523964918 
loop_ 
_atom_site_label 
_atom_site_type_symbol 
_atom_site_fract_x 
_atom_site_fract_y 
_atom_site_fract_z 
_atom_site_charge 
O1          O  0.34800303  0.33213666  0.32667920    -0.75190
O2          O  0.34387058  0.40811479  0.31867895    -0.54100
C3          C  0.33990236  0.36917824  0.33309624     0.78540
O4          O  0.46881456  0.34820244  0.25353287    -0.59790
O5          O  0.45058576  0.30914058  0.22307186    -0.52820
C6          C  0.46972421  0.31917093  0.23780461     0.70550
O7          O  0.43060187  0.43659005  0.30363361    -0.74350
O8          O  0.39341729  0.42806838  0.32315106    -0.54910
C9          C  0.41785965  0.42478984  0.32518127     0.76550
O10         O  0.37764923  0.24231985  0.26894423    -0.59490
O11         O  0.39851902  0.25692006  0.22818477    -0.52610
C12         C  0.38756164  0.23043849  0.24799302     0.73150
Zr13       Zr  0.37037508  0.31005214  0.28639886     2.54710
O14         O  0.38950070  0.25933204  0.32574539    -0.80060
O15         O  0.33033478  0.26881593  0.29079648    -0.93480
Zr16       Zr  0.43436199  0.38329258  0.27356055     2.64680
O17         O  0.44667372  0.31889618  0.30898696    -0.98430
O18         O  0.47503263  0.42120038  0.27642521    -0.80490
O19         O  0.39435360  0.37077210  0.29581794    -0.83850
O20         O  0.41105829  0.32109901  0.26425524    -2.18560
O21         O  0.34177121  0.32737746  0.18527117    -0.67240
O22         O  0.38265260  0.30529522  0.18125462    -0.51810
C23         C  0.35893755  0.30596891  0.17449768     0.71530
O24         O  0.38815874  0.52925191  0.22634068    -0.60150
O25         O  0.37310858  0.51483722  0.26977543    -0.52130
C26         C  0.38014029  0.54183676  0.24796853     0.73330
O27         O  0.41364787  0.45098563  0.16868587    -0.71540
O28         O  0.42369065  0.37746184  0.17078021    -0.50220
C29         C  0.42270089  0.41931578  0.15860318     0.74720
O30         O  0.31086761  0.43475990  0.22968528    -0.66870
O31         O  0.32554429  0.46463318  0.26651768    -0.54070
C32         C  0.30910791  0.46083109  0.24714915     0.73100
Zr33       Zr  0.33955868  0.37960687  0.21867822     2.77540
O34         O  0.31906081  0.41734328  0.17567985    -0.97620
O35         O  0.30243910  0.33267630  0.23125932    -0.78440
Zr36       Zr  0.39900678  0.46110341  0.21110699     2.70070
O37         O  0.37827582  0.51436736  0.17415323    -0.79690
O38         O  0.43910231  0.50212207  0.20657953    -0.98770
Zr39       Zr  0.36811792  0.43428185  0.27903886     2.21500
Zr40       Zr  0.40637883  0.33631595  0.21521904     2.11130
O41         O  0.37894856  0.39760271  0.19809070    -2.47460
O42         O  0.35942950  0.44433560  0.23064168    -0.79480
O43         O  0.36635156  0.32011935  0.23728365    -0.71680
O44         O  0.40858709  0.44851551  0.25832543    -2.32640
O45         O  0.34475253  0.37195867  0.26762747    -2.28840
O46         O  0.42769879  0.40024585  0.22524506    -0.73440
H47         H  0.42091340  0.29403266  0.26951132     0.78560
H48         H  0.41651980  0.47565252  0.26187828     0.79650
H49         H  0.37618573  0.40122382  0.17838565     0.81870
H50         H  0.32825841  0.36954558  0.27593250     0.79480
H51         H  0.47404232  0.44755351  0.26116737     0.42510
H52         H  0.45159961  0.48090018  0.20167612     0.41480
H53         H  0.36031161  0.50438264  0.17416336     0.41160
H54         H  0.33287942  0.42335020  0.16223967     0.39090
H55         H  0.30856119  0.30174592  0.23198905     0.42230
H56         H  0.31686788  0.29183578  0.28909957     0.37010
H57         H  0.39104319  0.27720346  0.34049936     0.43130
H58         H  0.43070029  0.30417490  0.31591905     0.39540
H59         H  0.30842531  0.39411642  0.16932041     0.44460
H60         H  0.33015990  0.25364028  0.31041367     0.43180
H61         H  0.45518337  0.29725970  0.29962238     0.43320
H62         H  0.43674301  0.52506263  0.18954663     0.43680
O63         O  0.40331479  0.03058598  0.22584515    -0.75190
O64         O  0.38755196  0.01588714  0.26919499    -0.54100
C65         C  0.39533925  0.04261393  0.24767322     0.78540
O66         O  0.34156894  0.85402556  0.17697231    -0.59790
O67         O  0.37818849  0.81935475  0.17022374    -0.52820
C68         C  0.35437550  0.82802887  0.16482710     0.70550
O69         O  0.31910323  0.95582985  0.22608829    -0.74350
O70         O  0.33480041  0.97434630  0.26618799    -0.54910
C71         C  0.31782600  0.97602956  0.24651859     0.76550
O72         O  0.44484776  0.93819121  0.18114801    -0.59490
O73         O  0.42866951  0.88058576  0.16350252    -0.52610
C74         C  0.44176839  0.91744053  0.16122573     0.73150
Zr75       Zr  0.41251060  0.96386608  0.20772580     2.54710
O76         O  0.39711155  0.01544407  0.16679984    -0.80060
O77         O  0.45399911  0.00016740  0.20416620    -0.93480
Zr78       Zr  0.34636325  0.90324844  0.21039082     2.64680
O79         O  0.33556139  0.95774619  0.16878775    -0.98430
O80         O  0.30298391  0.87515346  0.21526197    -0.80490
O81         O  0.37164398  0.95792777  0.22632398    -0.83850
O82         O  0.38688462  0.91008611  0.19027180    -2.18560
O83         O  0.46699205  0.83056954  0.24939888    -0.67240
O84         O  0.44961303  0.80596011  0.21201796    -0.51810
C85         C  0.46785965  0.80909044  0.22960519     0.71530
O86         O  0.35168286  0.83749007  0.31832915    -0.60150
O87         O  0.35150457  0.91368637  0.31393751    -0.52130
C88         C  0.34655126  0.87429452  0.32698797     0.73330
O89         O  0.37532810  0.74816313  0.25777957    -0.71540
O90         O  0.39847186  0.75867321  0.21845790    -0.50220
C91         C  0.38620960  0.73399605  0.23808133     0.74720
O92         O  0.43890290  0.92196052  0.30240047    -0.66870
O93         O  0.40082719  0.91756826  0.32017805    -0.54070
C94         C  0.42500770  0.91043878  0.32297287     0.73100
Zr95       Zr  0.43793852  0.87455553  0.26916745     2.77540
O96         O  0.45303067  0.81820651  0.30807468    -0.97620
O97         O  0.47939781  0.91055780  0.26379138    -0.78440
Zr98       Zr  0.36972525  0.81586075  0.27569128     2.70070
O99         O  0.38554113  0.75941329  0.31414362    -0.79690
O100        O  0.32700998  0.78427335  0.27702548    -0.98770
Zr101      Zr  0.37680467  0.93821246  0.27514355     2.21500
Zr102      Zr  0.40704172  0.83894324  0.20574855     2.11130
O103        O  0.41097402  0.81980194  0.25538110    -2.47460
O104        O  0.39736253  0.86810234  0.28952141    -0.79480
O105        O  0.43273059  0.89390411  0.22116007    -0.71680
O106        O  0.34955783  0.88487213  0.25940610    -2.32640
O107        O  0.41831349  0.94606355  0.25594830    -2.28840
O108        O  0.36595886  0.83349113  0.22637414    -0.73440
H109        H  0.38523301  0.91734057  0.17037330     0.78560
H110        H  0.33290039  0.88462065  0.26722588     0.79650
H111        H  0.41930234  0.79114081  0.26081208     0.81870
H112        H  0.42817674  0.96988038  0.26153074     0.79480
H113        H  0.30354639  0.85198867  0.23233536     0.42510
H114        H  0.32417876  0.77631262  0.25863207     0.41480
H115        H  0.40036941  0.77371955  0.32177014     0.41160
H116        H  0.44882060  0.78912991  0.30283870     0.39090
H117        H  0.47762119  0.93316770  0.24654455     0.42230
H118        H  0.45767651  0.00791170  0.22242755     0.37010
H119        H  0.37908977  0.00701504  0.16446386     0.43130
H120        H  0.34077906  0.94378840  0.15326346     0.39540
H121        H  0.47182203  0.82011893  0.30742167     0.44460
H122        H  0.45175179  0.02887029  0.19108338     0.43180
H123        H  0.31672677  0.95784927  0.16766471     0.43320
H124        H  0.32862825  0.75512333  0.28990238     0.43680
O125        O  0.15627547  0.27545454  0.23315539    -0.75190
O126        O  0.13745660  0.26070986  0.27463542    -0.54100
C127        C  0.14794518  0.28755273  0.25489732     0.78540
O128        O  0.09463993  0.09768449  0.17679321    -0.59790
O129        O  0.13190839  0.06210467  0.17309830    -0.52820
C130        C  0.10838999  0.07111127  0.16574644     0.70550
O131        O  0.06705912  0.19977667  0.22574073    -0.74350
O132        O  0.08352867  0.22461516  0.26356837    -0.54910
C133        C  0.06614362  0.22375878  0.24453235     0.76550
O134        O  0.19830355  0.17715892  0.19492418    -0.59490
O135        O  0.18275989  0.12847596  0.17063863    -0.52610
C136        C  0.19626993  0.16381201  0.17207322     0.73150
Zr137      Zr  0.16211540  0.21095352  0.21131540     2.54710
O138        O  0.14454809  0.24886874  0.16687528    -0.80060
O139        O  0.19354455  0.26812715  0.19427333    -0.93480
Zr140      Zr  0.09625503  0.14846729  0.21036025     2.64680
O141        O  0.08653144  0.20577906  0.16977096    -0.98430
O142        O  0.05362516  0.11664673  0.21071351    -0.80490
O143        O  0.12029351  0.20428356  0.22735185    -0.83850
O144        O  0.13800171  0.15529700  0.19346764    -2.18560
O145        O  0.21684073  0.07645651  0.25659700    -0.67240
O146        O  0.20174268  0.05325585  0.21779636    -0.51810
C147        C  0.21898938  0.05538023  0.23668229     0.71530
O148        O  0.09751812  0.08647111  0.31812956    -0.60150
O149        O  0.09561267  0.16280238  0.31208043    -0.52130
C150        C  0.09073750  0.12367278  0.32543327     0.73330
O151        O  0.12806813  0.99278927  0.26343346    -0.71540
O152        O  0.15210613  0.00392786  0.22457390    -0.50220
C153        C  0.14064533  0.97891378  0.24475592     0.74720
O154        O  0.18511913  0.15167079  0.31563861    -0.66870
O155        O  0.14341711  0.15422734  0.32349518    -0.54070
C156        C  0.16658093  0.14388977  0.33183126     0.73100
Zr157      Zr  0.18637955  0.12210194  0.27406627     2.77540
O158        O  0.21002554  0.06670714  0.30735880    -0.97620
O159        O  0.22270301  0.17280728  0.26855709    -0.78440
Zr160      Zr  0.11712087  0.06266015  0.27678113     2.70070
O161        O  0.12145304  0.00351217  0.31738510    -0.79690
O162        O  0.07410357  0.03721484  0.26849804    -0.98770
Zr163      Zr  0.12421175  0.18459899  0.27635864     2.21500
Zr164      Zr  0.15863656  0.08461636  0.21009946     2.11130
O165        O  0.15997550  0.06693018  0.25989039    -2.47460
O166        O  0.14447323  0.11462181  0.29118173    -0.79480
O167        O  0.18311323  0.14131322  0.22604326    -0.71680
O168        O  0.09740031  0.13161479  0.25940077    -2.32640
O169        O  0.16678633  0.19312095  0.26013617    -2.28840
O170        O  0.11615009  0.07905154  0.22751812    -0.73440
H171        H  0.13714435  0.16156635  0.17361420     0.78560
H172        H  0.08039367  0.13163908  0.26633141     0.79650
H173        H  0.16856175  0.03879361  0.26632147     0.81870
H174        H  0.17671379  0.21480712  0.26783905     0.79480
H175        H  0.05624475  0.08389779  0.21595571     0.42510
H176        H  0.07609540  0.01632835  0.25557718     0.41480
H177        H  0.13991539  0.00236925  0.32175716     0.41160
H178        H  0.19760920  0.04269370  0.31382404     0.39090
H179        H  0.22855268  0.17272973  0.24966477     0.42230
H180        H  0.20286203  0.27378005  0.21099330     0.37010
H181        H  0.13255795  0.27107494  0.17156650     0.43130
H182        H  0.09943112  0.20232006  0.15612841     0.39540
H183        H  0.21398094  0.08080820  0.32346024     0.44460
H184        H  0.18370587  0.29584098  0.18740020     0.43180
H185        H  0.07030227  0.19613420  0.16208311     0.43320
H186        H  0.06955793  0.01777089  0.28616655     0.43680
O187        O  0.18819348  0.70002585  0.17836457    -0.75190
O188        O  0.17836715  0.63371335  0.16547313    -0.54100
C189        C  0.18893392  0.67339922  0.16134498     0.78540
O190        O  0.18105221  0.66639007  0.30680642    -0.59790
O191        O  0.14262957  0.65497725  0.32255937    -0.52820
C192        C  0.16699528  0.65008535  0.32657801     0.70550
O193        O  0.21237017  0.57459626  0.25596270    -0.74350
O194        O  0.19873171  0.55628978  0.21516863    -0.54910
C195        C  0.21461886  0.55426742  0.23574920     0.76550
O196        O  0.14387888  0.77885227  0.22678261    -0.59490
O197        O  0.12857099  0.76168463  0.27039648    -0.52610
C198        C  0.13526501  0.78961808  0.24873656     0.73150
Zr199      Zr  0.15625330  0.71301031  0.20938009     2.54710
O200        O  0.19190706  0.76449639  0.20916079    -0.80060
O201        O  0.13855477  0.76033834  0.16777324    -0.93480
Zr202      Zr  0.18323557  0.62486055  0.27083609     2.64680
O203        O  0.22366788  0.66472730  0.26721471    -0.98430
O204        O  0.19945533  0.56983853  0.30976097    -0.80490
O205        O  0.17980570  0.64562942  0.22251913    -0.83850
O206        O  0.16186824  0.69452070  0.25779607    -2.18560
O207        O  0.06181975  0.68852701  0.22696740    -0.67240
O208        O  0.07737869  0.71404694  0.26498415    -0.51810
C209        C  0.05996507  0.71053181  0.24648118     0.71530
O210        O  0.13040012  0.49366376  0.26032897    -0.60150
O211        O  0.15401975  0.50660636  0.22157334    -0.52130
C212        C  0.14395789  0.48026258  0.24214763     0.73330
O213        O  0.09346300  0.58345659  0.31579350    -0.71540
O214        O  0.09237542  0.65949038  0.31224556    -0.50220
C215        C  0.08751932  0.61988311  0.32479105     0.74720
O216        O  0.09057174  0.59231666  0.17745798    -0.66870
O217        O  0.12876485  0.56078458  0.17192921    -0.54070
C218        C  0.10471673  0.56661696  0.16632137     0.73100
Zr219      Zr  0.09274936  0.64465638  0.20922016     2.77540
O220        O  0.05121718  0.60955492  0.20647701    -0.97620
O221        O  0.08286044  0.69931200  0.16744801    -0.78440
Zr222      Zr  0.11530145  0.56054279  0.27470947     2.70070
O223        O  0.07327227  0.53122628  0.26601247    -0.79690
O224        O  0.12242077  0.49666280  0.31212987    -0.98770
Zr225      Zr  0.15613400  0.58802924  0.20658521     2.21500
Zr226      Zr  0.12012173  0.68220380  0.27587297     2.11130
O227        O  0.09451316  0.62794679  0.25831602    -2.47460
O228        O  0.11424342  0.57712339  0.22539948    -0.79480
O229        O  0.11510234  0.70166442  0.22678722    -0.71680
O230        O  0.15739390  0.57031555  0.25622508    -2.32640
O231        O  0.13372545  0.65655333  0.19072377    -2.28840
O232        O  0.14192825  0.61339990  0.28970907    -0.73440
H233        H  0.17082395  0.71841536  0.26439040     0.78560
H234        H  0.16668096  0.54302446  0.26265301     0.79650
H235        H  0.07764932  0.62580477  0.26568164     0.81870
H236        H  0.13256984  0.66334441  0.17079992     0.79480
H237        H  0.18558878  0.54753696  0.31365834     0.42510
H238        H  0.14078764  0.49802229  0.31688268     0.41480
H239        H  0.07536249  0.51680090  0.24984236     0.41160
H240        H  0.04572780  0.60158656  0.22581993     0.39090
H241        H  0.07753957  0.72643236  0.17414570     0.42230
H242        H  0.12139255  0.76831978  0.17299885     0.37010
H243        H  0.20482765  0.74735127  0.22183103     0.43130
H244        H  0.21945855  0.69544024  0.26953505     0.39540
H245        H  0.03967330  0.63401534  0.19760334     0.44460
H246        H  0.13524662  0.74022081  0.15453747     0.43180
H247        H  0.23326007  0.65159611  0.28437554     0.43320
H248        H  0.11354487  0.50363769  0.32820805     0.43680
O249        O  0.22141107  0.30843702  0.06102329    -0.75190
O250        O  0.26130240  0.30236080  0.07756788    -0.54100
C251        C  0.23711241  0.29600464  0.08105200     0.78540
O252        O  0.27122189  0.13823338  0.00947546    -0.59790
O253        O  0.25030638  0.15866826  0.96754300    -0.52820
C254        C  0.25933099  0.12917069  0.98809941     0.70550
O255        O  0.31018721  0.21458852  0.07031323    -0.74350
O256        O  0.31002888  0.28894892  0.07265183    -0.54910
C257        C  0.31653383  0.24829458  0.08180525     0.76550
O258        O  0.18743296  0.23660965  0.99859817    -0.59490
O259        O  0.20287885  0.21265905  0.96118734    -0.52610
C260        C  0.18526762  0.21520853  0.97861188     0.73150
Zr261      Zr  0.22051506  0.27251132  0.02153797     2.54710
O262        O  0.20883190  0.20245743  0.05132599    -0.80060
O263        O  0.17979522  0.30978242  0.02284345    -0.93480
Zr264      Zr  0.28478475  0.20254220  0.02837837     2.64680
O265        O  0.27040890  0.15582177  0.07085492    -0.98430
O266        O  0.32296514  0.15866344  0.02604842    -0.80490
O267        O  0.26101517  0.25746832  0.04368660    -0.83850
O268        O  0.24357313  0.21675384  0.00596773    -2.18560
O269        O  0.21560516  0.35398208  0.93774072    -0.67240
O270        O  0.22628332  0.29761406  0.91693445    -0.51810
C271        C  0.21641375  0.33736627  0.91619139     0.71530
O272        O  0.34556814  0.32888859  0.99095484    -0.60150
O273        O  0.32940301  0.35043077  0.02914552    -0.52130
C274        C  0.34742855  0.34787298  0.01225962     0.73330
O275        O  0.31185297  0.24896620  0.92765684    -0.71540
O276        O  0.27199233  0.22208259  0.92019453    -0.50220
C277        C  0.29562970  0.22828462  0.91416565     0.74720
O278        O  0.26733525  0.42613717  0.98314669    -0.66870
O279        O  0.28062357  0.40568402  0.02818804    -0.54070
C280        C  0.27548754  0.43508879  0.00610493     0.73100
Zr281      Zr  0.25249446  0.36288516  0.96530314     2.77540
O282        O  0.27826225  0.39845313  0.92632546    -0.97620
O283        O  0.22300840  0.42310030  0.96929840    -0.78440
Zr284      Zr  0.31361772  0.28798175  0.96787556     2.70070
O285        O  0.33436536  0.33950854  0.93117317    -0.79690
O286        O  0.34970438  0.23692547  0.97566020    -0.98770
Zr287      Zr  0.28553216  0.32400952  0.03377213     2.21500
Zr288      Zr  0.24672299  0.24135673  0.95695572     2.11130
O289        O  0.27296964  0.30643824  0.94631763    -2.47460
O290        O  0.29269473  0.34522433  0.98578964    -0.79480
O291        O  0.22585119  0.29884749  0.97411243    -0.71680
O292        O  0.30891238  0.26796821  0.01647845    -2.32640
O293        O  0.24479803  0.33995183  0.01261952    -2.28840
O294        O  0.28790370  0.22400756  0.97936489    -0.73440
H295        H  0.23347883  0.18978615  0.00963451     0.78560
H296        H  0.32555754  0.26318915  0.02528790     0.79650
H297        H  0.27450831  0.31508964  0.92655367     0.81870
H298        H  0.23651281  0.36364136  0.01956819     0.79480
H299        H  0.33720486  0.17830790  0.02979467     0.42510
H300        H  0.34258336  0.20769255  0.97320619     0.41480
H301        H  0.34856877  0.32208092  0.92576065     0.41160
H302        H  0.29552446  0.38607710  0.93072742     0.39090
H303        H  0.20799990  0.40760022  0.97839917     0.42230
H304        H  0.18418996  0.34118285  0.02372611     0.37010
H305        H  0.22400174  0.19405625  0.06344154     0.43130
H306        H  0.25509515  0.14012177  0.06564296     0.39540
H307        H  0.28017702  0.42998766  0.92844074     0.44460
H308        H  0.17298481  0.29714942  0.04120153     0.43180
H309        H  0.28356861  0.13232313  0.07584404     0.43320
H310        H  0.36043700  0.24646319  0.95940482     0.43680
O311        O  0.21220927  0.80736478  0.04779821    -0.75190
O312        O  0.25231509  0.80758394  0.06293807    -0.54100
C313        C  0.22847990  0.79800591  0.06746159     0.78540
O314        O  0.27423501  0.64003906  0.00927653    -0.59790
O315        O  0.25227097  0.64791345  0.96787963    -0.52820
C316        C  0.26309150  0.62428882  0.98983860     0.70550
O317        O  0.30285164  0.73485211  0.06216034    -0.74350
O318        O  0.30145430  0.81107259  0.05690080    -0.54910
C319        C  0.30755656  0.77214379  0.07037851     0.76550
O320        O  0.18345445  0.72116004  0.98668707    -0.59490
O321        O  0.20346925  0.69365373  0.95293446    -0.52610
C322        C  0.18408428  0.69808721  0.96719626     0.73150
Zr323      Zr  0.21245805  0.76614162  0.01122267     2.54710
O324        O  0.19645877  0.70998111  0.04880144    -0.80060
O325        O  0.17209237  0.80586304  0.00192655    -0.93480
Zr326      Zr  0.28287827  0.71169374  0.02061867     2.64680
O327        O  0.27366680  0.66133804  0.06385362    -0.98430
O328        O  0.32545477  0.68177246  0.01827922    -0.80490
O329        O  0.25441183  0.76389968  0.03123823    -0.83850
O330        O  0.24049722  0.71183853  0.00064064    -2.18560
O331        O  0.19862280  0.82185536  0.93639969    -0.67240
O332        O  0.21278861  0.76826607  0.91526111    -0.51810
C333        C  0.19776610  0.80195399  0.91595050     0.71530
O334        O  0.33214945  0.84898987  0.97003355    -0.60150
O335        O  0.31677996  0.87059272  0.00849521    -0.52130
C336        C  0.33376313  0.87075407  0.98983173     0.73330
O337        O  0.30652644  0.74969215  0.91866414    -0.71540
O338        O  0.26864451  0.71458835  0.91358741    -0.50220
C339        C  0.29173571  0.72447893  0.90693160     0.74720
O340        O  0.24611101  0.92482249  0.96594378    -0.66870
O341        O  0.26348768  0.91324437  0.00941968    -0.54070
C342        C  0.25492079  0.93892043  0.98720220     0.73100
Zr343      Zr  0.23726524  0.85571976  0.94962790     2.77540
O344        O  0.24754550  0.89075049  0.90252255    -0.97620
O345        O  0.20517970  0.91351794  0.93572915    -0.78440
Zr346      Zr  0.30383940  0.79622834  0.95411595     2.70070
O347        O  0.31430683  0.84946745  0.91247818    -0.79690
O348        O  0.34654840  0.76475447  0.95985010    -0.98770
Zr349      Zr  0.27443466  0.83433813  0.01757742     2.21500
Zr350      Zr  0.24382392  0.72904927  0.95149058     2.11130
O351        O  0.26243272  0.80065386  0.93383364    -2.47460
O352        O  0.27888966  0.85203643  0.96864428    -0.79480
O353        O  0.21871213  0.78489985  0.96458663    -0.71680
O354        O  0.30171735  0.78115706  0.00322485    -2.32640
O355        O  0.23193235  0.83887468  0.99803676    -2.28840
O356        O  0.28588660  0.72552655  0.97150245    -0.73440
H357        H  0.23226988  0.68332900  0.00636355     0.78560
H358        H  0.31858293  0.78191556  0.01139049     0.79650
H359        H  0.26300771  0.80570560  0.91393995     0.81870
H360        H  0.22203887  0.86189463  0.00386726     0.79480
H361        H  0.33691779  0.70283126  0.02570178     0.42510
H362        H  0.34389725  0.73215939  0.96589405     0.41480
H363        H  0.31256681  0.87925210  0.91754348     0.41160
H364        H  0.23994436  0.87105647  0.89064203     0.39090
H365        H  0.19541287  0.91335248  0.95262425     0.42230
H366        H  0.17340350  0.83119384  0.01184635     0.37010
H367        H  0.21188734  0.69446003  0.05772323     0.43130
H368        H  0.25529670  0.65454257  0.06248811     0.39540
H369        H  0.26615552  0.88730505  0.90131050     0.44460
H370        H  0.15937522  0.78540748  0.01208067     0.43180
H371        H  0.28238909  0.63293765  0.06292686     0.43320
H372        H  0.35293434  0.76819151  0.94087353     0.43680
O373        O  0.47359981  0.05621668  0.05657653    -0.75190
O374        O  0.01418250  0.04470777  0.06939433    -0.54100
C375        C  0.49025822  0.04112940  0.07492297     0.78540
O376        O  0.02405578  0.89087380  0.99282427    -0.59790
O377        O  0.99669343  0.91150403  0.95548082    -0.52820
C378        C  0.01068697  0.88245553  0.97187032     0.70550
O379        O  0.05346846  0.97033243  0.06358606    -0.74350
O380        O  0.06910802  0.04054990  0.05244307    -0.54910
C381        C  0.06587693  0.00477730  0.06995210     0.76550
O382        O  0.43517233  0.97995022  0.99990313    -0.59490
O383        O  0.44633268  0.96253294  0.95881573    -0.52610
C384        C  0.43069101  0.96217812  0.97876744     0.73150
Zr385      Zr  0.46911931  0.02031918  0.01784723     2.54710
O386        O  0.45506355  0.96200902  0.05533376    -0.80060
O387        O  0.42992734  0.06302005  0.01671149    -0.93480
Zr388      Zr  0.03392811  0.95260170  0.01803265     2.64680
O389        O  0.01953543  0.89132610  0.05352998    -0.98430
O390        O  0.07589114  0.91951268  0.01721141    -0.80490
O391        O  0.01153237  0.00676536  0.03543741    -0.83850
O392        O  0.99092699  0.96529595  0.99944716    -2.18560
O393        O  0.46778750  0.11523916  0.92309456    -0.67240
O394        O  0.46572871  0.04533554  0.91221817    -0.51810
C395        C  0.46023254  0.08808347  0.90801207     0.71530
O396        O  0.08749362  0.09213242  0.97135912    -0.60150
O397        O  0.07554450  0.11429248  0.01088013    -0.52130
C398        C  0.09094495  0.11441871  0.99075729     0.73330
O399        O  0.05437067  0.99963760  0.91967542    -0.71540
O400        O  0.01469638  0.97355238  0.91153330    -0.50220
C401        C  0.03864552  0.97886487  0.90604602     0.74720
O402        O  0.00475783  0.17656727  0.98632581    -0.66870
O403        O  0.02574541  0.15225947  0.02731675    -0.54070
C404        C  0.01452076  0.18312818  0.00947398     0.73100
Zr405      Zr  0.99496586  0.11589113  0.96128293     2.77540
O406        O  0.01389277  0.17292358  0.92618540    -0.97620
O407        O  0.45539901  0.15690029  0.96128385    -0.78440
Zr408      Zr  0.05569249  0.04487657  0.95551122     2.70070
O409        O  0.06425875  0.10207014  0.91510435    -0.79690
O410        O  0.09710735  0.00911845  0.95625934    -0.98770
Zr411      Zr  0.03505593  0.07487758  0.02424354     2.21500
Zr412      Zr  0.99010426  0.99270442  0.95011254     2.11130
O413        O  0.01365844  0.06129989  0.93872092    -2.47460
O414        O  0.03707295  0.10093356  0.97595391    -0.79480
O415        O  0.47038141  0.04879829  0.97021200    -0.71680
O416        O  0.05652630  0.02007652  0.00394687    -2.32640
O417        O  0.49194851  0.08908891  0.00860952    -2.28840
O418        O  0.03263334  0.97830632  0.96900734    -0.73440
H419        H  0.48158242  0.93748787  0.00357966     0.78560
H420        H  0.07414891  0.01598043  0.00991425     0.79650
H421        H  0.01372710  0.07173126  0.91896419     0.81870
H422        H  0.48379911  0.11126115  0.01702761     0.79480
H423        H  0.08599523  0.93059321  0.03176348     0.42510
H424        H  0.09329393  0.97677077  0.95818722     0.41480
H425        H  0.06297059  0.13078553  0.92161633     0.41160
H426        H  0.01475594  0.15892368  0.90969491     0.39090
H427        H  0.44380196  0.13537041  0.97243205     0.42230
H428        H  0.43515603  0.09170831  0.02187431     0.37010
H429        H  0.46764251  0.93764616  0.05628925     0.43130
H430        H  0.00316509  0.88164324  0.04614592     0.39540
H431        H  0.50052680  0.19609822  0.92133487     0.44460
H432        H  0.42041049  0.04721363  0.03272887     0.43180
H433        H  0.03145131  0.86651455  0.05283287     0.43320
H434        H  0.10327692  0.01822377  0.93723288     0.43680
O435        O  0.06777737  0.51966800  0.05684141    -0.75190
O436        O  0.03205342  0.48076518  0.07208634    -0.54100
C437        C  0.05332365  0.50150166  0.07609460     0.78540
O438        O  0.50222157  0.67202004  0.98821401    -0.59790
O439        O  0.02165980  0.67217206  0.94722622    -0.52820
C440        C  0.01152334  0.69238753  0.96542058     0.70550
O441        O  0.47765656  0.56059877  0.05973989    -0.74350
O442        O  0.48515982  0.48509063  0.06914715    -0.54910
C443        C  0.47622366  0.52064702  0.07502934     0.76550
O444        O  0.09006366  0.58665345  0.97660356    -0.59490
O445        O  0.07062165  0.62107548  0.93658843    -0.52610
C446        C  0.09017902  0.61294069  0.95307087     0.73150
Zr447      Zr  0.06372509  0.53797889  0.00795067     2.54710
O448        O  0.09200248  0.58673298  0.02877480    -0.80060
O449        O  0.09822784  0.48429088  0.00987405    -0.93480
Zr450      Zr  0.49569454  0.59643481  0.01356359     2.64680
O451        O  0.50195467  0.65392451  0.04149639    -0.98430
O452        O  0.45136157  0.61838790  0.00435564    -0.80490
O453        O  0.02513535  0.53966696  0.03100533    -0.83850
O454        O  0.03568934  0.59767908  0.99015477    -2.18560
O455        O  0.04193516  0.48081287  0.91607695    -0.67240
O456        O  0.04158810  0.55718039  0.90234232    -0.51810
C457        C  0.04479755  0.51628392  0.89806555     0.71530
O458        O  0.43982933  0.47295039  0.99211680    -0.60150
O459        O  0.46121748  0.43781834  0.03129056    -0.52130
C460        C  0.44113033  0.44494505  0.01516825     0.73330
O461        O  0.45848147  0.59415563  0.92681701    -0.71540
O462        O  0.99532165  0.62578634  0.90972428    -0.50220
C463        C  0.47086556  0.62416539  0.91009059     0.74720
O464        O  0.02441798  0.38789739  0.99070865    -0.66870
O465        O  0.51332815  0.39146713  0.03455134    -0.54070
C466        C  0.01859108  0.36977902  0.01544067     0.73100
Zr467      Zr  0.03136609  0.46171598  0.96296422     2.77540
O468        O  0.01233931  0.40588743  0.93932246    -0.97620
O469        O  0.07411350  0.43156632  0.96241600    -0.78440
Zr470      Zr  0.46654598  0.52618427  0.96272575     2.70070
O471        O  0.45490542  0.48341529  0.92726288    -0.79690
O472        O  0.42303385  0.55329823  0.96046110    -0.98770
Zr473      Zr  0.50455185  0.47094559  0.03033142     2.21500
Zr474      Zr  0.02741003  0.59147348  0.94279509     2.11130
O475        O  0.00514228  0.52309660  0.94039311    -2.47460
O476        O  0.49242797  0.46464059  0.98440023    -0.79480
O477        O  0.05414057  0.52973058  0.96249458    -0.71680
O478        O  0.47528973  0.52926055  0.00985660    -2.32640
O479        O  0.04388956  0.46762551  0.00844236    -2.28840
O480        O  0.48821637  0.59252100  0.96652118    -0.73440
H481        H  0.04465107  0.62519340  0.99107196     0.78560
H482        H  0.45961888  0.52742468  0.01972306     0.79650
H483        H  0.00075084  0.52111389  0.92156643     0.81870
H484        H  0.05435219  0.44291274  0.01758858     0.79480
H485        H  0.44483112  0.62093403  0.02261772     0.42510
H486        H  0.41959955  0.55769118  0.97936221     0.41480
H487        H  0.45402006  0.45202344  0.93731585     0.41160
H488        H  0.00017635  0.42280687  0.92561205     0.39090
H489        H  0.08468064  0.45759619  0.95435362     0.42230
H490        H  0.10261104  0.47508374  0.02978765     0.37010
H491        H  0.10855645  0.57090998  0.03142185     0.43130
H492        H  0.02059299  0.65759488  0.04333914     0.39540
H493        H  0.02617070  0.39667403  0.92839993     0.44460
H494        H  0.11293075  0.50252419  0.00215703     0.43180
H495        H  0.49619091  0.64094093  0.06024452     0.43320
H496        H  0.41223881  0.52779923  0.95746038     0.43680
O497        O  0.34666868  0.14366061  0.80953405    -0.75190
O498        O  0.34689205  0.21969160  0.80296924    -0.54100
C499        C  0.33992733  0.18156062  0.81621023     0.78540
O500        O  0.47218794  0.14244240  0.74988784    -0.59790
O501        O  0.45586827  0.10900750  0.71569870    -0.52820
C502        C  0.47370840  0.11564184  0.73269013     0.70550
O503        O  0.43454786  0.23268215  0.80002256    -0.74350
O504        O  0.39480978  0.22544100  0.81321897    -0.54910
C505        C  0.41893490  0.22095263  0.81908128     0.76550
O506        O  0.38391278  0.04831191  0.75760592    -0.59490
O507        O  0.40926962  0.06232068  0.71992688    -0.52610
C508        C  0.39702927  0.03603622  0.73866969     0.73150
Zr509      Zr  0.37262336  0.11742166  0.77228120     2.54710
O510        O  0.38828347  0.06944491  0.81459301    -0.80060
O511        O  0.33292964  0.07575319  0.77227130    -0.93480
Zr512      Zr  0.43904266  0.18536910  0.76715155     2.64680
O513        O  0.45279488  0.12789676  0.80605521    -0.98430
O514        O  0.47838590  0.22842569  0.76424540    -0.80490
O515        O  0.39707305  0.17516595  0.78454420    -0.83850
O516        O  0.41530893  0.12565435  0.75517632    -2.18560
O517        O  0.35346885  0.14040325  0.66763039    -0.67240
O518        O  0.39485771  0.12047441  0.66511051    -0.51810
C519        C  0.37133615  0.12005340  0.65712516     0.71530
O520        O  0.39625595  0.33534262  0.71497162    -0.60150
O521        O  0.38027701  0.32080296  0.75796398    -0.52130
C522        C  0.38739176  0.34775221  0.73614223     0.73330
O523        O  0.45020301  0.25650702  0.68177587    -0.71540
O524        O  0.45008350  0.18279248  0.67899620    -0.50220
C525        C  0.46021530  0.22270964  0.67458936     0.74720
O526        O  0.31759567  0.24018221  0.71468695    -0.66870
O527        O  0.33113325  0.26855848  0.75250723    -0.54070
C528        C  0.31458749  0.26354043  0.73352247     0.73100
Zr529      Zr  0.34975819  0.19279946  0.70082117     2.77540
O530        O  0.33792967  0.24277823  0.65768216    -0.97620
O531        O  0.30976736  0.15205238  0.70096018    -0.78440
Zr532      Zr  0.41042039  0.26823095  0.70084395     2.70070
O533        O  0.39478215  0.29713614  0.65394438    -0.79690
O534        O  0.43575310  0.33649922  0.69438129    -0.98770
Zr535      Zr  0.37392476  0.24085402  0.76574346     2.21500
Zr536      Zr  0.41460117  0.14233794  0.70584147     2.11130
O537        O  0.39131889  0.20695441  0.68391867    -2.47460
O538        O  0.36903950  0.25503376  0.71655734    -0.79480
O539        O  0.37244719  0.12907614  0.72278235    -0.71680
O540        O  0.41600030  0.25319704  0.74943977    -2.32640
O541        O  0.35067137  0.18175822  0.75036241    -2.28840
O542        O  0.43452814  0.20379477  0.71958694    -0.73440
H543        H  0.42469375  0.09840882  0.76195740     0.78560
H544        H  0.42394489  0.27874020  0.75521592     0.79650
H545        H  0.39173900  0.21079864  0.66404749     0.81870
H546        H  0.33352742  0.17992175  0.75700276     0.79480
H547        H  0.47352622  0.25835746  0.75369247     0.42510
H548        H  0.45185246  0.32824689  0.70496186     0.41480
H549        H  0.37956514  0.31489191  0.65633170     0.41160
H550        H  0.34653294  0.23040384  0.64319529     0.39090
H551        H  0.31155350  0.12704754  0.71698417     0.42230
H552        H  0.31940567  0.09830349  0.77214332     0.37010
H553        H  0.39342395  0.09042095  0.82682003     0.43130
H554        H  0.43678410  0.11421698  0.81374479     0.39540
H555        H  0.31963308  0.23666766  0.65476696     0.44460
H556        H  0.33247424  0.05687464  0.79096608     0.43180
H557        H  0.46080547  0.10407815  0.79808479     0.43320
H558        H  0.44033277  0.34232924  0.67470307     0.43680
O559        O  0.34913059  0.64107591  0.80892759    -0.75190
O560        O  0.34846691  0.71724661  0.80301589    -0.54100
C561        C  0.34155448  0.67832118  0.81523379     0.78540
O562        O  0.47216555  0.63949928  0.74750173    -0.59790
O563        O  0.45638838  0.61325877  0.71005226    -0.52820
C564        C  0.47399440  0.61731137  0.72792675     0.70550
O565        O  0.44096656  0.73338140  0.79780709    -0.74350
O566        O  0.40020327  0.73688139  0.81024274    -0.54910
C567        C  0.42435026  0.73362597  0.81611630     0.76550
O568        O  0.38210156  0.55008867  0.75573876    -0.59490
O569        O  0.40711688  0.56049134  0.71787194    -0.52610
C570        C  0.39430066  0.53592540  0.73706367     0.73150
Zr571      Zr  0.37569188  0.61779153  0.77264886     2.54710
O572        O  0.39696807  0.57500724  0.81365529    -0.80060
O573        O  0.33825158  0.56975832  0.77925122    -0.93480
Zr574      Zr  0.44074196  0.68533564  0.76444081     2.64680
O575        O  0.45457347  0.63538406  0.80685301    -0.98430
O576        O  0.48127322  0.72485183  0.76098379    -0.80490
O577        O  0.40002382  0.67604004  0.78479994    -0.83850
O578        O  0.41721982  0.62497136  0.75297034    -2.18560
O579        O  0.34841741  0.62950798  0.67570295    -0.67240
O580        O  0.38895649  0.60817197  0.66997905    -0.51810
C581        C  0.36479874  0.60539871  0.66567594     0.71530
O582        O  0.40325770  0.83508555  0.71802730    -0.60150
O583        O  0.38428153  0.81982186  0.75957169    -0.52130
C584        C  0.39435079  0.84675977  0.73963067     0.73330
O585        O  0.43113467  0.75507469  0.66050690    -0.71540
O586        O  0.43474905  0.68017255  0.66079689    -0.50220
C587        C  0.43826040  0.72221674  0.65010911     0.74720
O588        O  0.32115261  0.74804544  0.71471139    -0.66870
O589        O  0.33546175  0.77613237  0.75214931    -0.54070
C590        C  0.31922940  0.77369517  0.73249465     0.73100
Zr591      Zr  0.34870501  0.69129994  0.70319065     2.77540
O592        O  0.33523115  0.73154171  0.65757900    -0.97620
O593        O  0.30692101  0.65684772  0.71041663    -0.78440
Zr594      Zr  0.41047784  0.76729713  0.70003800     2.70070
O595        O  0.38856899  0.81836124  0.66284016    -0.79690
O596        O  0.44961567  0.81116822  0.69542866    -0.98770
Zr597      Zr  0.37621513  0.74098547  0.76591386     2.21500
Zr598      Zr  0.41341431  0.64098654  0.70340864     2.11130
O599        O  0.38931994  0.70610644  0.68467509    -2.47460
O600        O  0.36966431  0.75378993  0.71710525    -0.79480
O601        O  0.37254170  0.62863411  0.72344899    -0.71680
O602        O  0.41768102  0.75237258  0.74802411    -2.32640
O603        O  0.35210816  0.68129331  0.75235838    -2.28840
O604        O  0.43590156  0.70256079  0.71586667    -0.73440
H605        H  0.42664961  0.59760939  0.75928028     0.78560
H606        H  0.42642431  0.77724360  0.75370533     0.79650
H607        H  0.38791420  0.71056999  0.66480130     0.81870
H608        H  0.33515149  0.67966182  0.75947336     0.79480
H609        H  0.47730354  0.75458964  0.74957845     0.42510
H610        H  0.46330196  0.78930903  0.69453274     0.41480
H611        H  0.37272837  0.82658767  0.67105696     0.41160
H612        H  0.34452388  0.76036423  0.65528673     0.39090
H613        H  0.31033951  0.62741833  0.72246446     0.42230
H614        H  0.32360898  0.59059041  0.77584973     0.37010
H615        H  0.39928261  0.59653060  0.82626171     0.43130
H616        H  0.45809992  0.60649095  0.80127202     0.39540
H617        H  0.34314826  0.71524660  0.64443173     0.44460
H618        H  0.33820974  0.55753046  0.79933850     0.43180
H619        H  0.47153624  0.64685153  0.81135023     0.43320
H620        H  0.44846387  0.82978521  0.67664429     0.43680
O621        O  0.09825008  0.40801987  0.80516940    -0.75190
O622        O  0.10110230  0.48422905  0.79654205    -0.54100
C623        C  0.09433417  0.44781775  0.81159443     0.78540
O624        O  0.21991770  0.38707361  0.74248094    -0.59790
O625        O  0.20333570  0.35598730  0.70749716    -0.52820
C626        C  0.22147116  0.36252542  0.72427870     0.70550
O627        O  0.18921483  0.45935488  0.80144669    -0.74350
O628        O  0.14738125  0.45147999  0.80557651    -0.54910
C629        C  0.17044648  0.44625159  0.81625388     0.76550
O630        O  0.13165741  0.29999408  0.75715297    -0.59490
O631        O  0.15512239  0.30869699  0.71793299    -0.52610
C632        C  0.14386782  0.28492592  0.73861655     0.73150
Zr633      Zr  0.11807009  0.37201276  0.76592672     2.54710
O634        O  0.11359883  0.30941865  0.80442334    -0.80060
O635        O  0.07503434  0.35164564  0.75346865    -0.93480
Zr636      Zr  0.18927896  0.43265237  0.75947184     2.64680
O637        O  0.21609888  0.38078260  0.79202437    -0.98430
O638        O  0.22337384  0.48796492  0.75252735    -0.80490
O639        O  0.14704706  0.42404470  0.77641757    -0.83850
O640        O  0.16179468  0.37540893  0.74952267    -2.18560
O641        O  0.09807792  0.38841216  0.66347546    -0.67240
O642        O  0.13794945  0.35961199  0.66371493    -0.51810
C643        C  0.11465211  0.36267050  0.65499008     0.71530
O644        O  0.15640002  0.58301664  0.71369583    -0.60150
O645        O  0.13800501  0.56870890  0.75539683    -0.52130
C646        C  0.14779637  0.59559448  0.73524807     0.73330
O647        O  0.20003005  0.48324447  0.67856074    -0.71540
O648        O  0.18597920  0.42582117  0.65970020    -0.50220
C649        C  0.19934463  0.46195499  0.65872083     0.74720
O650        O  0.06927314  0.49958876  0.70797221    -0.66870
O651        O  0.08465637  0.52309535  0.74683211    -0.54070
C652        C  0.06767528  0.52180590  0.72762015     0.73100
Zr653      Zr  0.09835522  0.44642908  0.69420010     2.77540
O654        O  0.08933825  0.49524080  0.64984453    -0.97620
O655        O  0.05562915  0.41485567  0.69489416    -0.78440
Zr656      Zr  0.16294586  0.51554568  0.69426562     2.70070
O657        O  0.14343676  0.54801629  0.64964736    -0.79690
O658        O  0.19124724  0.57790457  0.67717187    -0.98770
Zr659      Zr  0.12689253  0.49132044  0.75913209     2.21500
Zr660      Zr  0.16112528  0.38792926  0.69990704     2.11130
O661        O  0.14036010  0.45591211  0.67829776    -2.47460
O662        O  0.12131809  0.50562346  0.71006151    -0.79480
O663        O  0.11844269  0.38012677  0.71650833    -0.71680
O664        O  0.16890822  0.50251981  0.74297669    -2.32640
O665        O  0.09916390  0.43799532  0.74360435    -2.28840
O666        O  0.18539921  0.44793345  0.71164450    -0.73440
H667        H  0.17059073  0.34782018  0.75699571     0.78560
H668        H  0.17820977  0.52575019  0.74986426     0.79650
H669        H  0.14043922  0.45951493  0.65841932     0.81870
H670        H  0.08226356  0.43872211  0.75058920     0.79480
H671        H  0.22429623  0.49737649  0.73223324     0.42510
H672        H  0.20846670  0.56755685  0.68409305     0.41480
H673        H  0.13449556  0.57495648  0.65298192     0.41160
H674        H  0.09491847  0.47808425  0.63592422     0.39090
H675        H  0.05819254  0.38202117  0.69912851     0.42230
H676        H  0.06483933  0.35426274  0.76965768     0.37010
H677        H  0.09563378  0.31057688  0.80975944     0.43130
H678        H  0.20763385  0.35122352  0.79414587     0.39540
H679        H  0.07053235  0.49558285  0.64796664     0.44460
H680        H  0.07588917  0.31906139  0.75374235     0.43180
H681        H  0.21507525  0.38926529  0.81032363     0.43320
H682        H  0.19169081  0.57987616  0.65697379     0.43680
O683        O  0.10342931  0.88838550  0.81011813    -0.75190
O684        O  0.09756526  0.96366595  0.80044136    -0.54100
C685        C  0.09432288  0.92562926  0.81588335     0.78540
O686        O  0.22212983  0.88847019  0.74690160    -0.59790
O687        O  0.20846169  0.87104024  0.70625755    -0.52820
C688        C  0.22493293  0.86984654  0.72597620     0.70550
O689        O  0.19018464  0.94899530  0.80758618    -0.74350
O690        O  0.14776761  0.94826177  0.81241248    -0.54910
C691        C  0.17070111  0.93582483  0.82171950     0.76550
O692        O  0.13764131  0.79929864  0.75244209    -0.59490
O693        O  0.16038427  0.81590566  0.71309734    -0.52610
C694        C  0.14949370  0.78798298  0.73236556     0.73150
Zr695      Zr  0.12754517  0.86663790  0.76935987     2.54710
O696        O  0.14611822  0.81903068  0.81029810    -0.80060
O697        O  0.08836251  0.82329378  0.77029288    -0.93480
Zr698      Zr  0.19386387  0.94357198  0.75935220     2.64680
O699        O  0.23677598  0.95277919  0.77832225    -0.98430
O700        O  0.21568696  0.01103421  0.73666317    -0.80490
O701        O  0.15271935  0.92587620  0.77682712    -0.83850
O702        O  0.16994978  0.87999787  0.74981289    -2.18560
O703        O  0.10439068  0.89508704  0.66668468    -0.67240
O704        O  0.14489607  0.87198358  0.66300404    -0.51810
C705        C  0.12144312  0.87351993  0.65567528     0.71530
O706        O  0.14997237  0.08593761  0.72255255    -0.60150
O707        O  0.13552624  0.06585536  0.76624760    -0.52130
C708        C  0.14266107  0.09507941  0.74552078     0.73330
O709        O  0.18579904  0.01228397  0.66420583    -0.71540
O710        O  0.18719827  0.93906563  0.65986116    -0.50220
C711        C  0.19252831  0.98113772  0.65197241     0.74720
O712        O  0.06948500  0.99481592  0.71663444    -0.66870
O713        O  0.08544535  0.02186734  0.75390919    -0.54070
C714        C  0.06818996  0.01926985  0.73520622     0.73100
Zr715      Zr  0.09944406  0.94398238  0.70175955     2.77540
O716        O  0.08211400  0.98935023  0.65925857    -0.97620
O717        O  0.06058230  0.89966534  0.70745163    -0.78440
Zr718      Zr  0.15914735  0.02378449  0.70001590     2.70070
O719        O  0.13314988  0.06547404  0.66224898    -0.79690
O720        O  0.18946630  0.08530422  0.68918908    -0.98770
Zr721      Zr  0.12702336  0.98789897  0.76655657     2.21500
Zr722      Zr  0.16524963  0.89753963  0.70077137     2.11130
O723        O  0.13985171  0.96218712  0.68359272    -2.47460
O724        O  0.11909708  0.00529516  0.71791045    -0.79480
O725        O  0.12409806  0.88050994  0.71994271    -0.71680
O726        O  0.16785778  0.00763560  0.74829464    -2.32640
O727        O  0.10294654  0.93001036  0.75100149    -2.28840
O728        O  0.18675643  0.96095223  0.71181846    -0.73440
H729        H  0.17952834  0.85254649  0.75487166     0.78560
H730        H  0.17592769  0.03145681  0.75579357     0.79650
H731        H  0.13877100  0.96807836  0.66365239     0.81870
H732        H  0.08612364  0.92711175  0.75853041     0.79480
H733        H  0.22951089  0.00025884  0.72635510     0.42510
H734        H  0.20640606  0.07120585  0.68934948     0.41480
H735        H  0.12326170  0.08655469  0.67082315     0.41160
H736        H  0.08526016  0.02066371  0.66135445     0.39090
H737        H  0.06655525  0.86823921  0.71175303     0.42230
H738        H  0.07456100  0.84535230  0.77010245     0.37010
H739        H  0.13140896  0.80793323  0.82176379     0.43130
H740        H  0.24564364  0.92362173  0.78133702     0.39540
H741        H  0.09381965  0.98461558  0.64470748     0.44460
H742        H  0.08824525  0.80482310  0.78912363     0.43180
H743        H  0.23535296  0.96078218  0.79672390     0.43320
H744        H  0.18586344  0.09874114  0.66956070     0.43680
O745        O  0.24775938  0.05930362  0.41509635    -0.75190
O746        O  0.22914811  0.99290838  0.42475924    -0.54100
C747        C  0.22881480  0.03435203  0.41227273     0.78540
O748        O  0.35180850  0.08105498  0.46997112    -0.59790
O749        O  0.33854134  0.10955555  0.50680523    -0.52820
C750        C  0.35451829  0.10597037  0.48803706     0.70550
O751        O  0.32235493  0.97606299  0.42469856    -0.74350
O752        O  0.28487350  0.93844749  0.42441256    -0.54910
C753        C  0.30781153  0.94674527  0.41621875     0.76550
O754        O  0.26199793  0.16105957  0.46927289    -0.59490
O755        O  0.28565210  0.15134702  0.50923721    -0.52610
C756        C  0.27290397  0.17560131  0.48949554     0.73150
Zr757      Zr  0.25448571  0.08817598  0.45661321     2.54710
O758        O  0.25577184  0.14981659  0.41715214    -0.80060
O759        O  0.21009961  0.10491408  0.46434854    -0.93480
Zr760      Zr  0.32146472  0.02951852  0.45666545     2.64680
O761        O  0.32709882  0.07950122  0.41245817    -0.98430
O762        O  0.36467957  0.00112084  0.45730581    -0.80490
O763        O  0.27870637  0.03174438  0.44112714    -0.83850
O764        O  0.29776163  0.08827035  0.47027646    -2.18560
O765        O  0.24045577  0.07046003  0.53897123    -0.67240
O766        O  0.27562716  0.07826052  0.56213906    -0.51810
C767        C  0.25168164  0.07058637  0.56195237     0.71530
O768        O  0.29843510  0.87737094  0.51671171    -0.60150
O769        O  0.27163400  0.88260743  0.47854587    -0.52130
C770        C  0.28553353  0.86062923  0.49846578     0.73330
O771        O  0.33012338  0.98527496  0.56658657    -0.71540
O772        O  0.32515811  0.06119867  0.55845558    -0.50220
C773        C  0.33375651  0.02498223  0.57293231     0.74720
O774        O  0.20456368  0.95987817  0.50392057    -0.66870
O775        O  0.22067681  0.92439884  0.47151286    -0.54070
C776        C  0.20272299  0.93290926  0.48690676     0.73100
Zr777      Zr  0.23770100  0.00035901  0.52383146     2.77540
O778        O  0.23634234  0.94019820  0.56432965    -0.97620
O779        O  0.19698256  0.01209400  0.54369192    -0.78440
Zr780      Zr  0.30771432  0.95071019  0.52834657     2.70070
O781        O  0.30077227  0.89914596  0.57173529    -0.79690
O782        O  0.35055555  0.92234015  0.52548439    -0.98770
Zr783      Zr  0.26142224  0.96091302  0.46155442     2.21500
Zr784      Zr  0.29773836  0.07440651  0.51938875     2.11130
O785        O  0.28056759  0.00339016  0.54064593    -2.47460
O786        O  0.26441208  0.94652715  0.51118000    -0.79480
O787        O  0.25429562  0.07276159  0.50500334    -0.71680
O788        O  0.30482867  0.96061965  0.47885554    -2.32640
O789        O  0.23588405  0.01738291  0.47508269    -2.28840
O790        O  0.32429178  0.01957313  0.50586518    -0.73440
H791        H  0.30515627  0.11708341  0.46294342     0.78560
H792        H  0.31427594  0.93666165  0.47352131     0.79650
H793        H  0.28151839  0.99904526  0.56042161     0.81870
H794        H  0.21859004  0.01742445  0.46804778     0.79480
H795        H  0.36662243  0.98050083  0.47535524     0.42510
H796        H  0.36187822  0.94617371  0.53005798     0.41480
H797        H  0.28460309  0.88369246  0.56871182     0.41160
H798        H  0.25232236  0.94179715  0.57510836     0.39090
H799        H  0.18685264  0.02971881  0.52819100     0.42230
H800        H  0.19917791  0.08646155  0.45428052     0.37010
H801        H  0.27315384  0.14862421  0.41009492     0.43130
H802        H  0.32611525  0.10999733  0.41664117     0.39540
H803        H  0.22268696  0.94827313  0.57586107     0.44460
H804        H  0.20731005  0.13624658  0.45477132     0.43180
H805        H  0.34519787  0.07587584  0.40828832     0.43320
H806        H  0.35234510  0.89751195  0.54161644     0.43680
O807        O  0.23928042  0.58062496  0.42478731    -0.75190
O808        O  0.23363178  0.50609686  0.42521379    -0.54100
C809        C  0.23046841  0.54828232  0.41444908     0.78540
O810        O  0.35826163  0.55234316  0.48359473    -0.59790
O811        O  0.34522841  0.58704639  0.51804647    -0.52820
C812        C  0.36179085  0.57791519  0.50115145     0.70550
O813        O  0.31958634  0.46036429  0.43387976    -0.74350
O814        O  0.27868142  0.43566789  0.43237009    -0.54910
C815        C  0.30181025  0.43719355  0.42441878     0.76550
O816        O  0.27353471  0.66085170  0.48029782    -0.59490
O817        O  0.29666727  0.64466300  0.52066573    -0.52610
C818        C  0.28531604  0.67184755  0.50115988     0.73150
Zr819      Zr  0.26328452  0.59240042  0.46374556     2.54710
O820        O  0.28353031  0.64202367  0.42589352    -0.80060
O821        O  0.22513821  0.63858901  0.45977486    -0.93480
Zr822      Zr  0.32339495  0.51255844  0.46714253     2.64680
O823        O  0.33675936  0.56045443  0.42460344    -0.98430
O824        O  0.36085974  0.46526220  0.46960455    -0.80490
O825        O  0.28202836  0.53025680  0.44843663    -0.83850
O826        O  0.30533620  0.57777772  0.47992463    -2.18560
O827        O  0.24393044  0.57584454  0.54962554    -0.67240
O828        O  0.28062412  0.57142496  0.57193660    -0.51810
C829        C  0.25626434  0.56930999  0.57246519     0.71530
O830        O  0.28586824  0.37146648  0.52157365    -0.60150
O831        O  0.26074451  0.38698019  0.48219216    -0.52130
C832        C  0.27245711  0.35995450  0.50171587     0.73330
O833        O  0.32114923  0.46760988  0.57865983    -0.71540
O834        O  0.32710775  0.54330563  0.56852963    -0.50220
C835        C  0.32954084  0.50560018  0.58459695     0.74720
O836        O  0.20136425  0.47065915  0.51095952    -0.66870
O837        O  0.21520237  0.43801834  0.47616773    -0.54070
C838        C  0.19847148  0.44520463  0.49321461     0.73100
Zr839      Zr  0.23534160  0.51214120  0.52857345     2.77540
O840        O  0.22637866  0.46195124  0.57181595    -0.97620
O841        O  0.19364660  0.54175617  0.53528648    -0.78440
Zr842      Zr  0.29949908  0.44013069  0.53714965     2.70070
O843        O  0.28569827  0.38827864  0.57786670    -0.79690
O844        O  0.34022439  0.40188167  0.53899738    -0.98770
Zr845      Zr  0.25752385  0.46684213  0.46754588     2.21500
Zr846      Zr  0.30166877  0.56482896  0.52880312     2.11130
O847        O  0.27723119  0.50002251  0.54763787    -2.47460
O848        O  0.25700881  0.45094792  0.51711016    -0.79480
O849        O  0.25910167  0.57829363  0.51175503    -0.71680
O850        O  0.29940706  0.45105144  0.48763777    -2.32640
O851        O  0.23701879  0.52917442  0.47999384    -2.28840
O852        O  0.32326133  0.50272412  0.51653069    -0.73440
H853        H  0.31558632  0.60394890  0.47346180     0.78560
H854        H  0.30652986  0.42481268  0.48241267     0.79650
H855        H  0.27662170  0.49381970  0.56744416     0.81870
H856        H  0.22005039  0.53351680  0.47192110     0.79480
H857        H  0.36076301  0.44666002  0.48838872     0.42510
H858        H  0.35286880  0.42390557  0.54342754     0.41480
H859        H  0.26721887  0.38461674  0.57455231     0.41160
H860        H  0.20801848  0.46610084  0.57450369     0.39090
H861        H  0.19126865  0.56705017  0.51951746     0.42230
H862        H  0.21071877  0.61752788  0.45962534     0.37010
H863        H  0.29550814  0.62257346  0.41850159     0.43130
H864        H  0.34182910  0.58898765  0.43008292     0.39540
H865        H  0.22750381  0.43158105  0.56748673     0.44460
H866        H  0.22521531  0.65655962  0.44079892     0.43180
H867        H  0.35296748  0.54714393  0.42035601     0.43320
H868        H  0.33967645  0.37858407  0.55598569     0.43680
O869        O  0.47989334  0.33778650  0.42030551    -0.75190
O870        O  0.48046457  0.26463501  0.41539462    -0.54100
C871        C  0.47248880  0.30572140  0.40889667     0.78540
O872        O  0.10441231  0.32378733  0.47573579    -0.59790
O873        O  0.08855988  0.35026628  0.51234623    -0.52820
C874        C  0.10617714  0.34574859  0.49546048     0.70550
O875        O  0.07241344  0.23098979  0.42145765    -0.74350
O876        O  0.03239461  0.20381032  0.41690404    -0.54910
C877        C  0.05610259  0.20625509  0.41100209     0.76550
O878        O  0.01869922  0.41789352  0.47293096    -0.59490
O879        O  0.03842689  0.40028839  0.51497279    -0.52610
C880        C  0.02947304  0.42859269  0.49432049     0.73150
Zr881      Zr  0.00829027  0.35092419  0.45547967     2.54710
O882        O  0.02492538  0.39944857  0.41477922    -0.80060
O883        O  0.47116452  0.39891412  0.45436534    -0.93480
Zr884      Zr  0.07210257  0.28431891  0.45420866     2.64680
O885        O  0.07851862  0.34174389  0.41333720    -0.98430
O886        O  0.11481400  0.25755981  0.44909709    -0.80490
O887        O  0.02998191  0.29559405  0.43632725    -0.83850
O888        O  0.05039508  0.34168761  0.47164611    -2.18560
O889        O  0.48490756  0.28276199  0.55914460    -0.67240
O890        O  0.02487133  0.30700777  0.56677392    -0.51810
C891        C  0.50332181  0.28870816  0.57527522     0.71530
O892        O  0.03938660  0.13093112  0.50498369    -0.60150
O893        O  0.01361652  0.14668889  0.46614049    -0.52130
C894        C  0.02539610  0.11943267  0.48537895     0.73330
O895        O  0.07722379  0.22743793  0.56260731    -0.71540
O896        O  0.07220362  0.30296233  0.55891568    -0.50220
C897        C  0.08101549  0.26560159  0.57122785     0.74720
O898        O  0.45023899  0.22711514  0.49355524    -0.66870
O899        O  0.46736446  0.19275909  0.46128493    -0.54070
C900        C  0.44900571  0.20032165  0.47645943     0.73100
Zr901      Zr  0.48556125  0.25524242  0.51701565     2.77540
O902        O  0.47753734  0.17415164  0.52951639    -0.97620
O903        O  0.44547482  0.27673367  0.53434109    -0.78440
Zr904      Zr  0.05477179  0.19872220  0.52129581     2.70070
O905        O  0.05087218  0.13945733  0.56185187    -0.79690
O906        O  0.09681164  0.17097559  0.51374569    -0.98770
Zr907      Zr  0.00926811  0.22661662  0.45358054     2.21500
Zr908      Zr  0.04571221  0.32099932  0.52039075     2.11130
O909        O  0.02792798  0.24935246  0.53546492    -2.47460
O910        O  0.01177027  0.20307946  0.50267709    -0.79480
O911        O  0.50310854  0.32859515  0.50348858    -0.71680
O912        O  0.05236791  0.21604340  0.47197397    -2.32640
O913        O  0.48611370  0.28302319  0.46961051    -2.28840
O914        O  0.07229136  0.26866750  0.50362888    -0.73440
H915        H  0.05936699  0.36976955  0.46678065     0.78560
H916        H  0.06047101  0.19142452  0.46589063     0.79650
H917        H  0.02958860  0.23942134  0.55495701     0.81870
H918        H  0.46883614  0.28639284  0.46246975     0.79480
H919        H  0.11621407  0.22951457  0.46303858     0.42510
H920        H  0.10870560  0.19390163  0.51848576     0.41480
H921        H  0.03480107  0.12375787  0.55877756     0.41160
H922        H  0.49006624  0.15875057  0.54327957     0.39090
H923        H  0.43950261  0.30255670  0.52026684     0.42230
H924        H  0.45639457  0.37828754  0.45631586     0.37010
H925        H  0.02952465  0.37904238  0.40230772     0.43130
H926        H  0.08676994  0.36676125  0.42046160     0.39540
H927        H  0.46062236  0.16883785  0.53787700     0.44460
H928        H  0.46975197  0.41576487  0.43512154     0.43180
H929        H  0.09207374  0.32954727  0.40335978     0.43320
H930        H  0.09939866  0.14472127  0.52884648     0.43680
O931        O  0.46887303  0.81388061  0.42699037    -0.75190
O932        O  0.48536663  0.75080902  0.41622484    -0.54100
C933        C  0.47145498  0.78674604  0.41065432     0.78540
O934        O  0.10024206  0.83067455  0.46782147    -0.59790
O935        O  0.08585062  0.86317694  0.50264333    -0.52820
C936        C  0.10284537  0.85625131  0.48557216     0.70550
O937        O  0.06815188  0.72670467  0.42146524    -0.74350
O938        O  0.03127579  0.68698141  0.42445056    -0.54910
C939        C  0.05357397  0.69557662  0.41480497     0.76550
O940        O  0.00568219  0.91302262  0.47062831    -0.59490
O941        O  0.03297049  0.90610127  0.50769110    -0.52610
C942        C  0.01805136  0.92896038  0.48956004     0.73150
Zr943      Zr  0.00089706  0.84190528  0.45426267     2.54710
O944        O  0.01597851  0.88651452  0.41159060    -0.80060
O945        O  0.46336968  0.88989793  0.44763947    -0.93480
Zr946      Zr  0.06826159  0.78383385  0.45193697     2.64680
O947        O  0.07396295  0.83508065  0.40822711    -0.98430
O948        O  0.11142346  0.75686382  0.44935406    -0.80490
O949        O  0.02507575  0.78656473  0.43741529    -0.83850
O950        O  0.04440776  0.84217442  0.46627970    -2.18560
O951        O  0.48557267  0.82007459  0.54018990    -0.67240
O952        O  0.02256103  0.82320307  0.56014020    -0.51810
C953        C  0.99866080  0.81604655  0.56228886     0.71530
O954        O  0.04718386  0.63328303  0.51563506    -0.60150
O955        O  0.01986769  0.63856185  0.47802401    -0.52130
C956        C  0.03383411  0.61638770  0.49780666     0.73330
O957        O  0.07523246  0.74815016  0.56382237    -0.71540
O958        O  0.08012858  0.82132594  0.54552765    -0.50220
C959        C  0.08225660  0.78919741  0.56565514     0.74720
O960        O  0.45485941  0.70578492  0.50581145    -0.66870
O961        O  0.46855079  0.67935223  0.46861946    -0.54070
C962        C  0.45214421  0.68252402  0.48694794     0.73100
Zr963      Zr  0.48579544  0.75381699  0.52181760     2.77540
O964        O  0.48201620  0.69659129  0.56332753    -0.97620
O965        O  0.44271635  0.76847024  0.53428911    -0.78440
Zr966      Zr  0.05689152  0.70750852  0.52547054     2.70070
O967        O  0.05491242  0.65455071  0.56905178    -0.79690
O968        O  0.10082187  0.68535683  0.52139249    -0.98770
Zr969      Zr  0.00925702  0.71582938  0.45963943     2.21500
Zr970      Zr  0.04464666  0.82915619  0.51548354     2.11130
O971        O  0.02865630  0.75752164  0.53813332    -2.47460
O972        O  0.01340157  0.70166586  0.50910784    -0.79480
O973        O  0.00082332  0.82724163  0.50252992    -0.71680
O974        O  0.05290467  0.71540609  0.47593993    -2.32640
O975        O  0.48330283  0.77040945  0.47373207    -2.28840
O976        O  0.07146750  0.77574607  0.50102648    -0.73440
H977        H  0.05165012  0.87112127  0.45893184     0.78560
H978        H  0.06223505  0.69115419  0.47080589     0.79650
H979        H  0.02911193  0.75004284  0.55792113     0.81870
H980        H  0.46566976  0.76779803  0.46849929     0.79480
H981        H  0.11393171  0.73409541  0.46644114     0.42510
H982        H  0.11108939  0.70960681  0.52709812     0.41480
H983        H  0.03649937  0.64930936  0.57194801     0.41160
H984        H  0.49800563  0.69753184  0.57411359     0.39090
H985        H  0.43731764  0.79523135  0.52063302     0.42230
H986        H  0.44899672  0.87007788  0.45455212     0.37010
H987        H  0.02688398  0.86608430  0.40366197     0.43130
H988        H  0.07939636  0.86359055  0.41349925     0.39540
H989        H  0.46866645  0.70747545  0.57411956     0.44460
H990        H  0.46033830  0.89786169  0.42739773     0.43180
H991        H  0.08935741  0.82396948  0.40058458     0.43320
H992        H  0.10346346  0.65928800  0.53660823     0.43680
C993        C  0.03086052  0.48992822  0.52071374    -0.05680
C994        C  0.03189667  0.47674734  0.49498550     0.00250
C995        C  0.03600364  0.50951108  0.47078121    -0.08320
C996        C  0.03735326  0.55446775  0.47323831    -0.05700
C997        C  0.03512796  0.56780523  0.49870308     0.00230
C998        C  0.03257643  0.53514274  0.52309558    -0.08230
C999        C  0.03124633  0.54765389  0.55134728     0.62140
H1000       H  0.02833009  0.46442694  0.53900521     0.12840
H1001       H  0.03979948  0.58007183  0.45494877     0.12850
C1002       C  0.03918803  0.49795573  0.44235701     0.62380
F1003       F  0.02629296  0.51088308  0.57179475    -0.22790
F1004       F  0.01208628  0.57862969  0.55129224    -0.20120
F1005       F  0.05430748  0.56557474  0.55794673    -0.19790
F1006       F  0.51609419  0.48450002  0.43255850    -0.19850
F1007       F  0.05698336  0.46419808  0.44384618    -0.20170
F1008       F  0.04754130  0.53429334  0.42330329    -0.22840
C1009       C  0.02011363  0.04243110  0.51128076    -0.05680
C1010       C  0.02177876  0.07099620  0.48554171     0.00250
C1011       C  0.01989743  0.05266112  0.46106592    -0.08320
C1012       C  0.01676495  0.00623049  0.46355222    -0.05700
C1013       C  0.01637476  0.97754234  0.48934308     0.00230
C1014       C  0.01729839  0.99599579  0.51372043    -0.08230
C1015       C  0.01742790  0.96758196  0.54249029     0.62140
H1016       H  0.02149851  0.05672636  0.52977099     0.12840
H1017       H  0.01606525  0.99157905  0.44519219     0.12850
C1018       C  0.02336346  0.08082883  0.43249747     0.62380
F1019       F  0.00916422  0.99168961  0.56169993    -0.22790
F1020       F  0.04206370  0.95389627  0.54966908    -0.20120
F1021       F  0.00161909  0.93076446  0.54370599    -0.19790
F1022       F  0.04552706  0.10523399  0.43262779    -0.19850
F1023       F  0.50293036  0.10937730  0.42509153    -0.20170
F1024       F  0.52527149  0.05488584  0.41242516    -0.22840
C1025       C  0.17563890  0.37403610  0.50196988    -0.05680
C1026       C  0.17454820  0.42066230  0.49363849     0.00250
C1027       C  0.15096630  0.44262017  0.48698845    -0.08320
C1028       C  0.12877213  0.41669834  0.48944131    -0.05700
C1029       C  0.12987440  0.37005804  0.49735207     0.00230
C1030       C  0.15349398  0.34794660  0.50364042    -0.08230
C1031       C  0.15539486  0.29727111  0.51142968     0.62140
H1032       H  0.19405943  0.35823327  0.50684395     0.12840
H1033       H  0.11038406  0.43245561  0.48421683     0.12850
C1034       C  0.14940583  0.49272833  0.47625077     0.62380
F1035       F  0.17957097  0.28354793  0.52122197    -0.22790
F1036       F  0.14987818  0.27870277  0.48852518    -0.20120
F1037       F  0.13840111  0.28090134  0.53177159    -0.19790
F1038       F  0.16498495  0.50446440  0.45388424    -0.19850
F1039       F  0.15712556  0.51538930  0.49676834    -0.20170
F1040       F  0.12487412  0.50625460  0.46778320    -0.22840
C1041       C  0.43069664  0.61065490  0.49009124    -0.05680
C1042       C  0.42856913  0.65712163  0.48754758     0.00250
C1043       C  0.40468851  0.67679726  0.49066890    -0.08320
C1044       C  0.38387052  0.64872724  0.49730197    -0.05700
C1045       C  0.38579777  0.60244563  0.49942730     0.00230
C1046       C  0.40952572  0.58260323  0.49596547    -0.08230
C1047       C  0.41274465  0.53235974  0.49875268     0.62140
H1048       H  0.44924080  0.59639996  0.48808550     0.12840
H1049       H  0.36545315  0.66353460  0.49937433     0.12850
C1050       C  0.39949269  0.72676161  0.48659989     0.62380
F1051       F  0.43809524  0.51989163  0.50231299    -0.22790
F1052       F  0.40335038  0.51915524  0.47513588    -0.20120
F1053       F  0.39988971  0.50996613  0.52136656    -0.19790
F1054       F  0.37948493  0.73757102  0.46772664    -0.19850
F1055       F  0.41989081  0.75307152  0.47670954    -0.20170
F1056       F  0.39269377  0.73726810  0.51147799    -0.22840
C1057       C  0.15635361  0.94065526  0.48189960    -0.05680
C1058       C  0.17761783  0.91213892  0.48484411     0.00250
C1059       C  0.17419323  0.86527335  0.48858924    -0.08320
C1060       C  0.14923742  0.84852842  0.48933401    -0.05700
C1061       C  0.12800494  0.87706998  0.48666448     0.00230
C1062       C  0.13141715  0.92386291  0.48261521    -0.08230
C1063       C  0.10892599  0.95575993  0.47833401     0.62140
H1064       H  0.15951062  0.97644175  0.47917991     0.12840
H1065       H  0.14602791  0.81275042  0.49205798     0.12850
C1066       C  0.19661657  0.83315045  0.49264787     0.62380
F1067       F  0.11663026  0.00006995  0.47230052    -0.22790
F1068       F  0.09488845  0.94982314  0.50203943    -0.20120
F1069       F  0.09359434  0.94756964  0.45658350    -0.19790
F1070       F  0.21195629  0.84068584  0.51454136    -0.19850
F1071       F  0.21067450  0.83942024  0.46894890    -0.20170
F1072       F  0.18882181  0.78885631  0.49830539    -0.22840
C1073       C  0.27069981  0.78466490  0.51834921    -0.05680
C1074       C  0.28693089  0.81201997  0.50033288     0.00250
C1075       C  0.30356564  0.79289031  0.48376174    -0.08320
C1076       C  0.30276803  0.74654546  0.48497113    -0.05700
C1077       C  0.28609874  0.71940593  0.50240265     0.00230
C1078       C  0.26999480  0.73812610  0.51966867    -0.08230
C1079       C  0.25191690  0.70900957  0.53883654     0.62140
H1080       H  0.25833519  0.80015755  0.53099859     0.12840
H1081       H  0.31496512  0.73109658  0.47211399     0.12850
C1082       C  0.32184825  0.82155054  0.46480036     0.62380
F1083       F  0.23736724  0.73401771  0.55328025    -0.22790
F1084       F  0.26567216  0.67816262  0.55775523    -0.20120
F1085       F  0.23561108  0.68653304  0.52367695    -0.19790
F1086       F  0.33758446  0.84478727  0.48005855    -0.19850
F1087       F  0.30817927  0.85138341  0.44534793    -0.20170
F1088       F  0.33693242  0.79633817  0.45102168    -0.22840
C1089       C  0.26825670  0.23300700  0.51778751    -0.05680
C1090       C  0.27057562  0.22326330  0.49122067     0.00250
C1091       C  0.27254131  0.25867889  0.46814849    -0.08320
C1092       C  0.27322753  0.30266295  0.47286674    -0.05700
C1093       C  0.27155225  0.31231643  0.49952385     0.00230
C1094       C  0.26864299  0.27701712  0.52244218    -0.08230
C1095       C  0.26567066  0.28531257  0.55157445     0.62140
H1096       H  0.26643333  0.20547472  0.53513830     0.12840
H1097       H  0.27527954  0.33020075  0.45556579     0.12850
C1098       C  0.27390979  0.25071708  0.43874552     0.62380
F1099       F  0.25916130  0.24662680  0.56978062    -0.22790
F1100       F  0.24666940  0.31648578  0.55179570    -0.20120
F1101       F  0.28837547  0.30082115  0.56102961    -0.19790
F1102       F  0.25093536  0.23360431  0.43118460    -0.19850
F1103       F  0.29323056  0.22100186  0.43676516    -0.20170
F1104       F  0.27858398  0.28985639  0.42006275    -0.22840
C1105       C  0.40067662  0.10704963  0.48494296    -0.05680
C1106       C  0.37833183  0.13126209  0.48651188     0.00250
C1107       C  0.37897659  0.17840945  0.48251073    -0.08320
C1108       C  0.40245164  0.19996470  0.47725735    -0.05700
C1109       C  0.42494970  0.17574739  0.47600936     0.00230
C1110       C  0.42417906  0.12840143  0.47983130    -0.08230
C1111       C  0.44788774  0.10025035  0.47925374     0.62140
H1112       H  0.39943786  0.07090925  0.48764302     0.12840
H1113       H  0.40356913  0.23609661  0.47466142     0.12850
C1114       C  0.35500307  0.20569262  0.48310204     0.62380
F1115       F  0.44265236  0.05479770  0.48494403    -0.22790
F1116       F  0.46561322  0.10884272  0.49877696    -0.20120
F1117       F  0.45817489  0.11023809  0.45334929    -0.19790
F1118       F  0.34486190  0.19597256  0.50911991    -0.19850
F1119       F  0.33736849  0.19548464  0.46394948    -0.20170
F1120       F  0.35972143  0.25126508  0.47683418    -0.22840
C1121       C  0.19793686  0.03846679  0.61059031    -0.05680
C1122       C  0.20710445  0.99841823  0.62708567     0.00250
C1123       C  0.23196231  0.98401535  0.62347748    -0.08320
C1124       C  0.24699778  0.01079880  0.60350229    -0.05700
C1125       C  0.23783964  0.05083077  0.58704853     0.00230
C1126       C  0.21297611  0.06533497  0.59098368    -0.08230
C1127       C  0.20266112  0.10986632  0.57525261     0.62140
H1128       H  0.17890873  0.04945487  0.61396716     0.12840
H1129       H  0.26570482  0.99955937  0.60000933     0.12850
C1130       C  0.24231161  0.94072702  0.64062212     0.62380
F1131       F  0.18020591  0.12146244  0.58610811    -0.22790
F1132       F  0.19782795  0.10775346  0.54786891    -0.20120
F1133       F  0.22025321  0.14338971  0.57676253    -0.19790
F1134       F  0.22682090  0.90539645  0.63676270    -0.19850
F1135       F  0.24305255  0.94353174  0.66828228    -0.20170
F1136       F  0.26658849  0.93152230  0.63328258    -0.22840
C1137       C  0.08730989  0.83825704  0.63189854    -0.05680
C1138       C  0.11320900  0.84713597  0.63404839     0.00250
C1139       C  0.12944812  0.83240669  0.61459505    -0.08320
C1140       C  0.11869640  0.80596111  0.59614678    -0.05700
C1141       C  0.09215078  0.80376501  0.59172189     0.00230
C1142       C  0.07738407  0.83024323  0.60685658    -0.08230
C1143       C  0.05753475  0.86536728  0.59457924     0.62140
H1144       H  0.07443662  0.85020201  0.64570270     0.12840
H1145       H  0.13081113  0.79208893  0.58249930     0.12850
C1146       C  0.15669463  0.84888596  0.61045752     0.62380
F1147       F  0.03379157  0.85274795  0.60464513    -0.22790
F1148       F  0.05707856  0.87419223  0.56628669    -0.20120
F1149       F  0.06329079  0.90605264  0.60213479    -0.19790
F1150       F  0.15721823  0.89510043  0.60694155    -0.19850
F1151       F  0.17210031  0.83095761  0.63278631    -0.20170
F1152       F  0.16690296  0.83725106  0.58723671    -0.22840
C1153       C  0.20287726  0.52397782  0.61976566    -0.05680
C1154       C  0.21343396  0.48360519  0.63426392     0.00250
C1155       C  0.23942970  0.47482097  0.63088658    -0.08320
C1156       C  0.25372193  0.50650726  0.61289414    -0.05700
C1157       C  0.24285807  0.54584736  0.59736656     0.00230
C1158       C  0.21728653  0.55597038  0.60208680    -0.08230
C1159       C  0.20612089  0.60216112  0.59088698     0.62140
H1160       H  0.18335316  0.53137034  0.62357686     0.12840
H1161       H  0.27328993  0.49889501  0.60991806     0.12850
C1162       C  0.25284782  0.43208405  0.64467582     0.62380
F1163       F  0.18280922  0.60772902  0.60216457    -0.22790
F1164       F  0.20255649  0.60927031  0.56260455    -0.20120
F1165       F  0.22251418  0.63451138  0.59748668    -0.19790
F1166       F  0.23728675  0.40274382  0.66156282    -0.19850
F1167       F  0.27350635  0.44246193  0.66020163    -0.20170
F1168       F  0.26154987  0.41041785  0.62456292    -0.22840
C1169       C  0.08803692  0.30074149  0.63955221    -0.05680
C1170       C  0.10724923  0.33373952  0.63394221     0.00250
C1171       C  0.12140943  0.33482559  0.60963372    -0.08320
C1172       C  0.11547245  0.30431760  0.59189643    -0.05700
C1173       C  0.09574717  0.27227278  0.59684347     0.00230
C1174       C  0.08311601  0.26878580  0.62220833    -0.08230
C1175       C  0.06560646  0.22939998  0.63141299     0.62140
H1176       H  0.07747775  0.29890246  0.65822386     0.12840
H1177       H  0.12462328  0.30840644  0.57226339     0.12850
C1178       C  0.14148940  0.37066565  0.60107167     0.62380
F1179       F  0.05379968  0.23212978  0.65576209    -0.22790
F1180       F  0.07966202  0.19031348  0.63556649    -0.20120
F1181       F  0.04717366  0.22702999  0.61141302    -0.19790
F1182       F  0.16265283  0.36252687  0.61852539    -0.19850
F1183       F  0.13169119  0.41239463  0.60214788    -0.20170
F1184       F  0.14934213  0.37170341  0.57439828    -0.22840
C1185       C  0.15102271  0.67370741  0.71047577    -0.05680
C1186       C  0.14895626  0.64435437  0.73597382     0.00250
C1187       C  0.14758451  0.66259410  0.76041325    -0.08320
C1188       C  0.14898200  0.70940695  0.75806667    -0.05700
C1189       C  0.15057249  0.73880123  0.73240289     0.00230
C1190       C  0.15133145  0.72030533  0.70812470    -0.08230
C1191       C  0.15128703  0.74908796  0.67963190     0.62140
H1192       H  0.15167654  0.65982395  0.69188977     0.12840
H1193       H  0.14834292  0.72360410  0.77654375     0.12850
C1194       C  0.14443016  0.63369264  0.78890999     0.62380
F1195       F  0.14907522  0.72442062  0.65881337    -0.22790
F1196       F  0.17380916  0.77252406  0.67629056    -0.20120
F1197       F  0.13088992  0.77795341  0.67685063    -0.19790
F1198       F  0.16350903  0.60186258  0.79429329    -0.19850
F1199       F  0.12089030  0.61289438  0.79020281    -0.20170
F1200       F  0.14572032  0.65862681  0.80963865    -0.22840
C1201       C  0.13286201  0.17068809  0.72229067    -0.05680
C1202       C  0.14188503  0.14291846  0.74650918     0.00250
C1203       C  0.15166674  0.16185366  0.76873791    -0.08320
C1204       C  0.15225112  0.20885768  0.76548241    -0.05700
C1205       C  0.14388025  0.23631183  0.74070091     0.00230
C1206       C  0.13368227  0.21704339  0.71894983    -0.08230
C1207       C  0.12306742  0.24512169  0.69249674     0.62140
H1208       H  0.12551767  0.15554080  0.70550811     0.12840
H1209       H  0.15950089  0.22459773  0.78206097     0.12850
C1210       C  0.16215439  0.13299595  0.79511931     0.62380
F1211       F  0.11049944  0.21923754  0.67616939    -0.22790
F1212       F  0.14269699  0.26715092  0.67746279    -0.20120
F1213       F  0.10593218  0.27573096  0.69879475    -0.19790
F1214       F  0.18093662  0.10509535  0.78894680    -0.19850
F1215       F  0.14281288  0.10744361  0.80860596    -0.20170
F1216       F  0.17268258  0.15859656  0.81296349    -0.22840
C1217       C  0.32675108  0.51690288  0.63309415    -0.05680
C1218       C  0.34245927  0.51099436  0.61136108     0.00250
C1219       C  0.36671254  0.53208204  0.61025820    -0.08320
C1220       C  0.37292766  0.56213483  0.62806525    -0.05700
C1221       C  0.35611532  0.57189168  0.64792408     0.00230
C1222       C  0.33299355  0.54684052  0.65130590    -0.08230
C1223       C  0.31468270  0.55181581  0.67374513     0.62140
H1224       H  0.30850581  0.50050545  0.63445326     0.12840
H1225       H  0.39111901  0.57922555  0.62572788     0.12850
C1226       C  0.38608620  0.52594547  0.58912435     0.62380
F1227       F  0.29511838  0.52081756  0.67564321    -0.22790
F1228       F  0.30393983  0.59404303  0.66803691    -0.20120
F1229       F  0.32750272  0.54549562  0.69906288    -0.19790
F1230       F  0.38864367  0.56556749  0.57027547    -0.19850
F1231       F  0.37925033  0.49221170  0.57510410    -0.20170
F1232       F  0.40937703  0.51475732  0.60230994    -0.22840
C1233       C  0.47857711  0.73126794  0.62667632    -0.05680
C1234       C  0.45234050  0.73745539  0.62464671     0.00250
C1235       C  0.44237580  0.77265311  0.60418702    -0.08320
C1236       C  0.45915487  0.80086289  0.58733444    -0.05700
C1237       C  0.48567969  0.79359736  0.58813625     0.00230
C1238       C  0.99564049  0.75814466  0.60920635    -0.08230
C1239       C  0.02325067  0.74553211  0.61587220     0.62140
H1240       H  0.98608203  0.70668793  0.64348900     0.12840
H1241       H  0.45102159  0.82786634  0.57202892     0.12850
C1242       C  0.41410541  0.78271486  0.59986726     0.62380
F1243       F  0.02911371  0.74942334  0.64283365    -0.22790
F1244       F  0.02716793  0.70169165  0.61321971    -0.20120
F1245       F  0.03987513  0.77148095  0.59946252    -0.19790
F1246       F  0.40899698  0.82313330  0.60748675    -0.19850
F1247       F  0.39906253  0.74982445  0.61479725    -0.20170
F1248       F  0.40734312  0.78597324  0.57227660    -0.22840
C1249       C  0.00360013  0.55809142  0.74861299    -0.05680
C1250       C  0.99789860  0.59329498  0.72680904     0.00250
C1251       C  0.01513857  0.60516917  0.70518102    -0.08320
C1252       C  0.03813536  0.58159895  0.70633767    -0.05700
C1253       C  0.04397438  0.54667034  0.72838502     0.00230
C1254       C  0.02626515  0.53387419  0.74947812    -0.08230
C1255       C  0.03138592  0.49540854  0.77307486     0.62140
H1256       H  0.49005534  0.54973616  0.76497662     0.12840
H1257       H  0.05168696  0.58999831  0.68999916     0.12850
C1258       C  0.00913955  0.64241129  0.68112349     0.62380
F1259       F  0.00994031  0.48411441  0.78835420    -0.22790
F1260       F  0.05027261  0.50819728  0.78987313    -0.20120
F1261       F  0.03883233  0.45785763  0.76341891    -0.19790
F1262       F  0.00390885  0.68120375  0.69070016    -0.19850
F1263       F  0.48825097  0.63022198  0.66656357    -0.20170
F1264       F  0.02927163  0.65086887  0.66341902    -0.22840
C1265       C  0.27366553  0.78088459  0.72140511    -0.05680
C1266       C  0.29583968  0.80063561  0.73018735     0.00250
C1267       C  0.29503233  0.84501490  0.73506695    -0.08320
C1268       C  0.27136566  0.86660793  0.73297260    -0.05700
C1269       C  0.24908711  0.84615514  0.72496171     0.00230
C1270       C  0.25036971  0.80330981  0.71792625    -0.08230
C1271       C  0.22743333  0.78093625  0.70708508     0.62140
H1272       H  0.27471421  0.74724999  0.71727615     0.12840
H1273       H  0.27005261  0.89995585  0.73754037     0.12850
C1274       C  0.31885192  0.87023867  0.74135376     0.62380
F1275       F  0.23277911  0.73812556  0.70314164    -0.22790
F1276       F  0.21957889  0.80590912  0.68186071    -0.20120
F1277       F  0.20806048  0.77776899  0.72569224    -0.19790
F1278       F  0.33689891  0.86776402  0.72183345    -0.19850
F1279       F  0.32857195  0.85207796  0.76736318    -0.20170
F1280       F  0.31394009  0.91510644  0.74070282    -0.22840
C1281       C  0.34246548  0.06407901  0.64052511    -0.05680
C1282       C  0.36407014  0.09166471  0.63585016     0.00250
C1283       C  0.37865180  0.08875606  0.61229958    -0.08320
C1284       C  0.37002738  0.06073067  0.59381206    -0.05700
C1285       C  0.34808469  0.03351830  0.59838011     0.00230
C1286       C  0.33523545  0.03358726  0.62333943    -0.08230
C1287       C  0.31369533  0.00215457  0.63307120     0.62140
H1288       H  0.33148026  0.06490436  0.65870207     0.12840
H1289       H  0.37957489  0.06191662  0.57451841     0.12850
C1290       C  0.40233501  0.11717093  0.60557957     0.62380
F1291       F  0.31994165  0.97766181  0.65898728    -0.22790
F1292       F  0.30887326  0.97233789  0.61570853    -0.20120
F1293       F  0.29209535  0.02688223  0.63501540    -0.19790
F1294       F  0.42150571  0.10249903  0.62487216    -0.19850
F1295       F  0.39693974  0.16155934  0.60577223    -0.20170
F1296       F  0.41130570  0.11471886  0.57979183    -0.22840
C1297       C  0.48647595  0.20367689  0.63975245    -0.05680
C1298       C  0.48330119  0.23201999  0.65797996     0.00250
C1299       C  0.49535614  0.27478815  0.65252212    -0.08320
C1300       C  0.50340286  0.29197624  0.62555859    -0.05700
C1301       C  0.49970706  0.26716027  0.60466185     0.00230
C1302       C  0.49169595  0.22110605  0.61237344    -0.08230
C1303       C  0.48684086  0.18978141  0.59246423     0.62140
H1304       H  0.48012076  0.16940149  0.64580766     0.12840
H1305       H  0.51125928  0.32549395  0.62060619     0.12850
C1306       C  0.50080743  0.30233791  0.67447228     0.62380
F1307       F  0.47876849  0.14751967  0.60504365    -0.22790
F1308       F  0.50901892  0.18375893  0.57978021    -0.20120
F1309       F  0.46779031  0.20720388  0.57395258    -0.19790
F1310       F  0.49430498  0.27994511  0.70044680    -0.19850
F1311       F  0.48766350  0.34232217  0.66803223    -0.20170
F1312       F  0.52658004  0.31169803  0.67526303    -0.22840
C1313       C  0.02072721  0.11386828  0.73337693    -0.05680
C1314       C  0.49766170  0.09050756  0.73274918     0.00250
C1315       C  0.49795308  0.04370048  0.73324838    -0.08320
C1316       C  0.02153203  0.02197276  0.73442444    -0.05700
C1317       C  0.04455701  0.04521775  0.73512730     0.00230
C1318       C  0.04433568  0.09205644  0.73422351    -0.08230
C1319       C  0.06877427  0.11909812  0.73303809     0.62140
H1320       H  0.02006914  0.14959717  0.73289223     0.12840
H1321       H  0.02222505  0.98627776  0.73479943     0.12850
C1322       C  0.47363961  0.01632287  0.73323933     0.62380
F1323       F  0.06411705  0.16470349  0.72857343    -0.22790
F1324       F  0.08326248  0.11063145  0.71163714    -0.20120
F1325       F  0.08239929  0.10750071  0.75770243    -0.19790
F1326       F  0.46098871  0.02777870  0.70795369    -0.19850
F1327       F  0.45808350  0.02419801  0.75395209    -0.20170
F1328       F  0.47851532  0.97080032  0.73776023    -0.22840
C1329       C  0.40076664  0.95809107  0.76375291    -0.05680
C1330       C  0.39774779  0.98777420  0.73841902     0.00250
C1331       C  0.39357306  0.97087469  0.71385901    -0.08320
C1332       C  0.39278673  0.92463875  0.71548211    -0.05700
C1333       C  0.39550388  0.89476828  0.74075462     0.00230
C1334       C  0.39962367  0.91151417  0.76550390    -0.08230
C1335       C  0.40310598  0.88099677  0.79355210     0.62140
H1336       H  0.40372681  0.97187042  0.78228196     0.12840
H1337       H  0.38938073  0.91137641  0.69683283     0.12850
C1338       C  0.38777184  0.00130555  0.68642359     0.62380
F1339       F  0.41031902  0.90459138  0.81390225    -0.22790
F1340       F  0.42183051  0.84971814  0.79244126    -0.20120
F1341       F  0.38045692  0.85939906  0.80119994    -0.19790
F1342       F  0.40920420  0.02548896  0.67711849    -0.19850
F1343       F  0.37977532  0.97788487  0.66625827    -0.20170
F1344       F  0.36846072  0.02986458  0.69012070    -0.22840
C1345       C  0.39135013  0.41016109  0.76094638    -0.05680
C1346       C  0.38701868  0.39633260  0.73571980     0.00250
C1347       C  0.38422470  0.42892683  0.71093498    -0.08320
C1348       C  0.38752870  0.47414835  0.71236550    -0.05700
C1349       C  0.39247743  0.48768306  0.73751613     0.00230
C1350       C  0.39390315  0.45541774  0.76245642    -0.08230
C1351       C  0.39845090  0.46804083  0.79061170     0.62140
H1352       H  0.39314751  0.38498632  0.77963000     0.12840
H1353       H  0.38588535  0.49957753  0.69375400     0.12850
C1354       C  0.37726499  0.41699471  0.68307850     0.62380
F1355       F  0.40388837  0.43099932  0.81097440    -0.22790
F1356       F  0.37686845  0.48793929  0.79819806    -0.20120
F1357       F  0.41883524  0.49721158  0.78974991    -0.19790
F1358       F  0.35748300  0.38639161  0.68577523    -0.19850
F1359       F  0.39814107  0.39935196  0.67255906    -0.20170
F1360       F  0.36943628  0.45418471  0.66402115    -0.22840
C1361       C  0.24472403  0.29309206  0.72415981    -0.05680
C1362       C  0.24574430  0.33915937  0.72385680     0.00250
C1363       C  0.26952265  0.36017592  0.72727954    -0.08320
C1364       C  0.29146270  0.33358867  0.73171054    -0.05700
C1365       C  0.29033920  0.28736462  0.73256137     0.00230
C1366       C  0.26653263  0.26632096  0.72961601    -0.08230
C1367       C  0.26276178  0.21595694  0.73351368     0.62140
H1368       H  0.22638475  0.27730263  0.72212091     0.12840
H1369       H  0.30981956  0.34906404  0.73413193     0.12850
C1370       C  0.27231488  0.40999046  0.72727337     0.62380
F1371       F  0.24241379  0.20330037  0.75050858    -0.22790
F1372       F  0.28366036  0.19192918  0.74570502    -0.20120
F1373       F  0.25745957  0.20450217  0.70815298    -0.19790
F1374       F  0.27031920  0.41719437  0.75395724    -0.19850
F1375       F  0.25393901  0.43491152  0.71059728    -0.20170
F1376       F  0.29580827  0.42550763  0.71752015    -0.22840
C1377       C  0.47119176  0.69313303  0.87318501    -0.05680
C1378       C  0.45666912  0.65982913  0.88983978     0.00250
C1379       C  0.42961353  0.66320880  0.88678411    -0.08320
C1380       C  0.41880657  0.69319746  0.86398074    -0.05700
C1381       C  0.43389121  0.72175141  0.84528899     0.00230
C1382       C  0.46009901  0.72534141  0.85204353    -0.08230
C1383       C  0.47721195  0.76168703  0.83690799     0.62140
H1384       H  0.99163035  0.69434003  0.87647765     0.12840
H1385       H  0.39859867  0.69170177  0.85930500     0.12850
C1386       C  0.41184249  0.63567942  0.90688439     0.62380
F1387       F  0.99128813  0.78050154  0.85590695    -0.22790
F1388       F  0.46348953  0.79574917  0.82037854    -0.20120
F1389       F  0.49371668  0.74329406  0.82079410    -0.19790
F1390       F  0.41807338  0.64127489  0.93343856    -0.19850
F1391       F  0.41331682  0.59105537  0.90492033    -0.20170
F1392       F  0.38692454  0.64921004  0.90144219    -0.22840
C1393       C  0.05611885  0.44933209  0.84156118    -0.05680
C1394       C  0.08223792  0.45710598  0.83744528     0.00250
C1395       C  0.09435952  0.48820242  0.85226424    -0.08320
C1396       C  0.07997201  0.51315499  0.86765583    -0.05700
C1397       C  0.05416154  0.50544116  0.87184412     0.00230
C1398       C  0.04204921  0.47205966  0.85894612    -0.08230
C1399       C  0.01439722  0.45843639  0.86344779     0.62140
H1400       H  0.04633303  0.42666897  0.83029690     0.12840
H1401       H  0.08942196  0.53620197  0.87890092     0.12850
C1402       C  0.12301439  0.49228018  0.85416265     0.62380
F1403       F  0.00146186  0.46249029  0.83845507    -0.22790
F1404       F  0.00172708  0.48439263  0.87883596    -0.20120
F1405       F  0.01334809  0.41414117  0.87662732    -0.19790
F1406       F  0.13232834  0.51563830  0.82968819    -0.19850
F1407       F  0.13301848  0.44973107  0.86043427    -0.20170
F1408       F  0.13104320  0.51443950  0.87493716    -0.22840
C1409       C  0.41222786  0.16615239  0.86397051    -0.05680
C1410       C  0.42896235  0.19095374  0.84506260     0.00250
C1411       C  0.45528021  0.17959830  0.84857085    -0.08320
C1412       C  0.46234921  0.13757689  0.86415876    -0.05700
C1413       C  0.44608973  0.11298997  0.88349908     0.00230
C1414       C  0.42138666  0.13156522  0.88546708    -0.08230
C1415       C  0.40558134  0.12114615  0.91121689     0.62140
H1416       H  0.39244736  0.17621272  0.86344040     0.12840
H1417       H  0.48227763  0.12804064  0.86487875     0.12850
C1418       C  0.47694540  0.21124332  0.83842962     0.62380
F1419       F  0.38266707  0.10251170  0.90533454    -0.22790
F1420       F  0.40090615  0.16051083  0.92038502    -0.20120
F1421       F  0.41745806  0.09215836  0.93259158    -0.19790
F1422       F  0.46903357  0.25506395  0.82985384    -0.19850
F1423       F  0.48892533  0.19665400  0.81723403    -0.20170
F1424       F  0.49457190  0.21120554  0.85981088    -0.22840
C1425       C  0.04713537  0.91908574  0.87665715    -0.05680
C1426       C  0.05006894  0.96328266  0.88173518     0.00250
C1427       C  0.06797203  0.99137937  0.86592406    -0.08320
C1428       C  0.08458082  0.97323114  0.84943662    -0.05700
C1429       C  0.08072793  0.93101300  0.84197097     0.00230
C1430       C  0.06158079  0.90311765  0.85612609    -0.08230
C1431       C  0.05670800  0.85717696  0.84971007     0.62140
H1432       H  0.03363449  0.89722507  0.88881660     0.12840
H1433       H  0.09969332  0.99487624  0.84004768     0.12850
C1434       C  0.06977729  0.04160309  0.86497503     0.62380
F1435       F  0.03766251  0.83490739  0.86569695    -0.22790
F1436       F  0.07871200  0.83192500  0.85488601    -0.20120
F1437       F  0.04942737  0.86103324  0.82220705    -0.19790
F1438       F  0.08950442  0.05033479  0.88229729    -0.19850
F1439       F  0.04730587  0.05896055  0.87241669    -0.20170
F1440       F  0.07460524  0.06374376  0.83838110    -0.22840
C1441       C  0.48818250  0.81213526  0.96517976    -0.05680
C1442       C  0.01123358  0.83539674  0.96649005     0.00250
C1443       C  0.03422391  0.81295018  0.96320094    -0.08320
C1444       C  0.03348725  0.76703814  0.96135571    -0.05700
C1445       C  0.01060882  0.74286518  0.96141447     0.00230
C1446       C  0.48742538  0.76634840  0.96287991    -0.08230
C1447       C  0.46184426  0.74280549  0.96322547     0.62140
H1448       H  0.47067897  0.82959258  0.96735244     0.12840
H1449       H  0.05107462  0.74911005  0.96196398     0.12850
C1450       C  0.05956437  0.83737829  0.96153966     0.62380
F1451       F  0.44185695  0.77299911  0.95902846    -0.22790
F1452       F  0.45881968  0.71489543  0.98851777    -0.20120
F1453       F  0.46039320  0.71786798  0.94254400    -0.19790
F1454       F  0.07876663  0.81203204  0.95355849    -0.19850
F1455       F  0.05770231  0.87689000  0.94233772    -0.20170
F1456       F  0.06639591  0.84686910  0.98703221    -0.22840
C1457       C  0.03258678  0.24508917  0.03115919    -0.05680
C1458       C  0.01289676  0.22960284  0.01534866     0.00250
C1459       C  0.49282982  0.25977158  0.00437138    -0.08320
C1460       C  0.49466713  0.30464773  0.00733312    -0.05700
C1461       C  0.01564478  0.32072276  0.02045600     0.00230
C1462       C  0.03470308  0.29069524  0.03318370    -0.08230
C1463       C  0.05757929  0.30744125  0.04761956     0.62140
H1464       H  0.04703507  0.22174619  0.04079547     0.12840
H1465       H  0.48033178  0.32855540  0.99776571     0.12850
C1466       C  0.46957163  0.24584321  0.98907821     0.62380
F1467       F  0.07402231  0.27299021  0.05887742    -0.22790
F1468       F  0.04952958  0.32770987  0.06868643    -0.20120
F1469       F  0.07083909  0.33832188  0.02895634    -0.19790
F1470       F  0.45964590  0.20649683  0.00378315    -0.19850
F1471       F  0.47615349  0.24031347  0.96301481    -0.20170
F1472       F  0.45055178  0.27783651  0.98571325    -0.22840
C1473       C  0.33181280  0.65915796  0.86501838    -0.05680
C1474       C  0.32376370  0.67853683  0.83803013     0.00250
C1475       C  0.30251660  0.70810442  0.83421752    -0.08320
C1476       C  0.29236299  0.72182582  0.85726894    -0.05700
C1477       C  0.30201788  0.70571985  0.88396121     0.00230
C1478       C  0.32099654  0.67210498  0.88819426    -0.08230
C1479       C  0.33046518  0.65158985  0.91706306     0.62140
H1480       H  0.34794724  0.63662126  0.86782223     0.12840
H1481       H  0.27709109  0.74624595  0.85431138     0.12850
C1482       C  0.29045916  0.72739397  0.80619363     0.62380
F1483       F  0.34364940  0.61224398  0.91744043    -0.22790
F1484       F  0.31019882  0.64162077  0.93435325    -0.20120
F1485       F  0.34624813  0.68163473  0.92709812    -0.19790
F1486       F  0.26427845  0.72286897  0.80742962    -0.19850
F1487       F  0.29839964  0.70586515  0.78567794    -0.20170
F1488       F  0.29637347  0.77241575  0.79916756    -0.22840
C1489       C  0.19437287  0.82464930  0.86628988    -0.05680
C1490       C  0.18287061  0.82480133  0.89115007     0.00250
C1491       C  0.16356405  0.85745233  0.89192303    -0.08320
C1492       C  0.15969712  0.89272251  0.86889936    -0.05700
C1493       C  0.17442320  0.89647541  0.84528950     0.00230
C1494       C  0.19122955  0.85988685  0.84369208    -0.08230
C1495       C  0.20888199  0.85863769  0.82024781     0.62140
H1496       H  0.20875907  0.79949682  0.86578131     0.12840
H1497       H  0.14559162  0.91823656  0.86978236     0.12850
C1498       C  0.14637967  0.85659429  0.91618265     0.62380
F1499       F  0.21725697  0.81570417  0.81967733    -0.22790
F1500       F  0.22983813  0.88462380  0.82367776    -0.20120
F1501       F  0.19679597  0.87367255  0.79541968    -0.19790
F1502       F  0.15111612  0.89378346  0.92784947    -0.19850
F1503       F  0.14958238  0.81857346  0.93626542    -0.20170
F1504       F  0.12123773  0.85778886  0.90695016    -0.22840
C1505       C  0.14075671  0.70147073  0.94625495    -0.05680
C1506       C  0.16084893  0.67536667  0.95991096     0.00250
C1507       C  0.15932310  0.62819340  0.96412031    -0.08320
C1508       C  0.13653437  0.60873228  0.95693756    -0.05700
C1509       C  0.11510923  0.63483505  0.94670632     0.00230
C1510       C  0.11784626  0.68178034  0.93906549    -0.08230
C1511       C  0.09668598  0.71065225  0.92389617     0.62140
H1512       H  0.14308723  0.73737504  0.94152939     0.12840
H1513       H  0.13443838  0.57264406  0.96169488     0.12850
C1514       C  0.18093609  0.59859671  0.97800764     0.62380
F1515       F  0.10329105  0.75553206  0.91823061    -0.22790
F1516       F  0.07534733  0.70598032  0.93967655    -0.20120
F1517       F  0.09102671  0.69725917  0.89916727    -0.19790
F1518       F  0.18677334  0.60955925  0.00336165    -0.19850
F1519       F  0.20215202  0.60474289  0.96179129    -0.20170
F1520       F  0.17461046  0.55359518  0.98233563    -0.22840
C1521       C  0.40381251  0.89735762  0.99766706    -0.05680
C1522       C  0.40582544  0.93844678  0.97924417     0.00250
C1523       C  0.38326084  0.95980053  0.96708991    -0.08320
C1524       C  0.35963453  0.93782986  0.97213307    -0.05700
C1525       C  0.35772798  0.89657553  0.99034170     0.00230
C1526       C  0.38010320  0.87620379  0.00353944    -0.08230
C1527       C  0.37867570  0.83234152  0.02392688     0.62140
H1528       H  0.42101805  0.88242282  0.00796372     0.12840
H1529       H  0.34240295  0.95266394  0.96184549     0.12850
C1530       C  0.38412484  0.00654522  0.95007885     0.62380
F1531       F  0.40225155  0.81899208  0.03575827    -0.22790
F1532       F  0.36943026  0.79911642  0.01070349    -0.20120
F1533       F  0.36253104  0.83732514  0.04479194    -0.19790
F1534       F  0.40057793  0.00772297  0.92856297    -0.19850
F1535       F  0.39252464  0.03549386  0.96687494    -0.20170
F1536       F  0.36042023  0.02089532  0.93906790    -0.22840
C1537       C  0.31442629  0.16963677  0.89014487    -0.05680
C1538       C  0.30434540  0.21302889  0.88872858     0.00250
C1539       C  0.30175101  0.24138646  0.86259479    -0.08320
C1540       C  0.31115497  0.22710799  0.83925544    -0.05700
C1541       C  0.32375698  0.18561607  0.84070929     0.00230
C1542       C  0.32370459  0.15510149  0.86636074    -0.08230
C1543       C  0.33260647  0.10738710  0.86833714     0.62140
H1544       H  0.31507693  0.14726923  0.91004766     0.12840
H1545       H  0.30963903  0.24973715  0.81948889     0.12850
C1546       C  0.28954591  0.28733078  0.85951995     0.62380
F1547       F  0.33070265  0.08274597  0.89484610    -0.22790
F1548       F  0.35763770  0.10681614  0.86070834    -0.20120
F1549       F  0.31769276  0.08692820  0.85079872    -0.19790
F1550       F  0.30320261  0.31299576  0.87516759    -0.19850
F1551       F  0.26480278  0.28280261  0.86848012    -0.20170
F1552       F  0.28887126  0.31005712  0.83237739    -0.22840
C1553       C  0.18880151  0.34540700  0.87329481    -0.05680
C1554       C  0.20443839  0.36617833  0.89055005     0.00250
C1555       C  0.20539425  0.41469705  0.88439239    -0.08320
C1556       C  0.19199251  0.43857861  0.86130001    -0.05700
C1557       C  0.17702743  0.41788956  0.84393117     0.00230
C1558       C  0.17458599  0.37030872  0.85066715    -0.08230
C1559       C  0.15605319  0.34580998  0.83519483     0.62140
H1560       H  0.18706330  0.30930827  0.87833808     0.12840
H1561       H  0.19380444  0.47480147  0.85612512     0.12850
C1562       C  0.22015452  0.44575537  0.89968807     0.62380
F1563       F  0.13212493  0.36274149  0.83739631    -0.22790
F1564       F  0.15548704  0.30027517  0.84582177    -0.20120
F1565       F  0.16246372  0.35139420  0.80793671    -0.19790
F1566       F  0.23612113  0.47270778  0.88172394    -0.19850
F1567       F  0.23488071  0.42424945  0.92087743    -0.20170
F1568       F  0.20329257  0.47277561  0.91004468    -0.22840
C1569       C  0.13696163  0.12067638  0.98191474    -0.05680
C1570       C  0.11477518  0.14146436  0.98859523     0.00250
C1571       C  0.11532557  0.18794719  0.98870366    -0.08320
C1572       C  0.13839866  0.21151872  0.98330177    -0.05700
C1573       C  0.16083506  0.19037858  0.97748595     0.00230
C1574       C  0.15999503  0.14412786  0.97641215    -0.08230
C1575       C  0.18350437  0.11892019  0.97088918     0.62140
H1576       H  0.13608763  0.08533211  0.98119840     0.12840
H1577       H  0.13930235  0.24673526  0.98435697     0.12850
C1578       C  0.09173405  0.21248622  0.99453702     0.62380
F1579       F  0.17879747  0.07371788  0.97230237    -0.22790
F1580       F  0.20220850  0.12298068  0.99039308    -0.20120
F1581       F  0.19215261  0.13628342  0.94481731    -0.19790
F1582       F  0.08475954  0.19624878  0.02134212    -0.19850
F1583       F  0.07208039  0.20588837  0.97648798    -0.20170
F1584       F  0.09580761  0.25814009  0.99163108    -0.22840
C1585       C  0.26187177  0.50120116  0.02349109    -0.05680
C1586       C  0.27743956  0.48339375  0.00579707     0.00250
C1587       C  0.28786423  0.51243108  0.98276957    -0.08320
C1588       C  0.28007257  0.55722887  0.97659437    -0.05700
C1589       C  0.26406449  0.57510098  0.99382345     0.00230
C1590       C  0.25517990  0.54677236  0.01815962    -0.08230
C1591       C  0.23811483  0.56187347  0.03893610     0.62140
H1592       H  0.25364111  0.47881580  0.04081944     0.12840
H1593       H  0.28772566  0.57900664  0.95881790     0.12850
C1594       C  0.30764345  0.49820876  0.96431502     0.62380
F1595       F  0.21631023  0.53586217  0.04163874    -0.22790
F1596       F  0.23072810  0.60597354  0.03154716    -0.20120
F1597       F  0.25081675  0.55618035  0.06428645    -0.19790
F1598       F  0.29764369  0.50271594  0.93772013    -0.19850
F1599       F  0.31582756  0.45460240  0.97321995    -0.20170
F1600       F  0.32869868  0.52583732  0.96389529    -0.22840
C1601       C  0.26042000  0.06593473  0.96299168    -0.05680
C1602       C  0.25603206  0.08070811  0.98765720     0.00250
C1603       C  0.25014695  0.04860779  0.01173025    -0.08320
C1604       C  0.24956785  0.00305874  0.01025978    -0.05700
C1605       C  0.25479324  0.98809254  0.98595957     0.00230
C1606       C  0.26035194  0.02003179  0.96169440    -0.08230
C1607       C  0.26734976  0.00620215  0.93481236     0.62140
H1608       H  0.26487877  0.09071654  0.94489813     0.12840
H1609       H  0.24549387  0.97835017  0.02852193     0.12850
C1610       C  0.24558714  0.06114676  0.03951474     0.62380
F1611       F  0.27605019  0.04208034  0.91565839    -0.22790
F1612       F  0.24622925  0.98883244  0.92322735    -0.20120
F1613       F  0.28649363  0.97442599  0.93973752    -0.19790
F1614       F  0.22972478  0.09789439  0.03650913    -0.19850
F1615       F  0.26872268  0.07029823  0.05120376    -0.20170
F1616       F  0.23421228  0.02670298  0.05761174    -0.22840
C1617       C  0.37106295  0.41554203  0.01853763    -0.05680
C1618       C  0.37188528  0.37006873  0.01729355     0.00250
C1619       C  0.39565567  0.34756554  0.02080500    -0.08320
C1620       C  0.41811400  0.37248687  0.02339473    -0.05700
C1621       C  0.41739865  0.41895389  0.02231452     0.00230
C1622       C  0.39327732  0.44042779  0.02107487    -0.08230
C1623       C  0.38962806  0.48967794  0.02148444     0.62140
H1624       H  0.35276528  0.43233687  0.01657903     0.12840
H1625       H  0.43651602  0.35642465  0.02398362     0.12850
C1626       C  0.39744974  0.29787402  0.02079579     0.62380
F1627       F  0.37174087  0.49430073  0.04073679    -0.22790
F1628       F  0.38051414  0.51124355  0.99589782    -0.20120
F1629       F  0.41174325  0.51031316  0.02825956    -0.19790
F1630       F  0.39308376  0.29045472  0.99429018    -0.19850
F1631       F  0.37961531  0.27458563  0.03801661    -0.20170
F1632       F  0.42121031  0.28108479  0.03001154    -0.22840
C1633       C  0.18381083  0.72696912  0.11808527    -0.05680
C1634       C  0.20000822  0.69566242  0.13449303     0.00250
C1635       C  0.22663286  0.70082165  0.13051601    -0.08320
C1636       C  0.23579315  0.73527861  0.10916519    -0.05700
C1637       C  0.21938181  0.76778177  0.09350639     0.00230
C1638       C  0.19297109  0.76452369  0.09960818    -0.08230
C1639       C  0.17383932  0.80089250  0.08776719     0.62140
H1640       H  0.16360168  0.72436215  0.12180338     0.12840
H1641       H  0.25583156  0.73690681  0.10461124     0.12850
C1642       C  0.24511907  0.67000746  0.14903568     0.62380
F1643       F  0.15494237  0.80331199  0.10643014    -0.22790
F1644       F  0.16257397  0.79125632  0.06396493    -0.20120
F1645       F  0.18529236  0.84260044  0.08208889    -0.19790
F1646       F  0.23959141  0.62603770  0.14749353    -0.19850
F1647       F  0.24298426  0.67548554  0.17607050    -0.20170
F1648       F  0.27007831  0.67875091  0.14145814    -0.22840
C1649       C  0.07812995  0.48449566  0.12103947    -0.05680
C1650       C  0.06125387  0.51298539  0.10326567     0.00250
C1651       C  0.05974045  0.55848343  0.10661461    -0.08320
C1652       C  0.07456540  0.57339621  0.12700080    -0.05700
C1653       C  0.09150680  0.54560931  0.14455405     0.00230
C1654       C  0.09343548  0.50014912  0.14155743    -0.08230
C1655       C  0.11271949  0.46932000  0.15850607     0.62140
H1656       H  0.08061740  0.45081553  0.11740175     0.12840
H1657       H  0.07329412  0.60834076  0.12875769     0.12850
C1658       C  0.04406543  0.59433038  0.08817768     0.62380
F1659       F  0.11031525  0.42575873  0.15429812    -0.22790
F1660       F  0.10983876  0.46900914  0.18631756    -0.20120
F1661       F  0.13669746  0.48459617  0.15069630    -0.19790
F1662       F  0.53076629  0.61875099  0.10410738    -0.19850
F1663       F  0.02659141  0.57670960  0.07213135    -0.20170
F1664       F  0.56009619  0.62292351  0.07132506    -0.22840
C1665       C  0.18960165  0.55434617  0.38782020    -0.05680
C1666       C  0.21545062  0.56458415  0.38869257     0.00250
C1667       C  0.22439573  0.60197087  0.36968036    -0.08320
C1668       C  0.20688863  0.63095654  0.35349799    -0.05700
C1669       C  0.18074295  0.62077388  0.35123093     0.00230
C1670       C  0.17250421  0.57922399  0.36807381    -0.08230
C1671       C  0.14734671  0.55633409  0.36578878     0.62140
H1672       H  0.18270859  0.52591603  0.40251061     0.12840
H1673       H  0.21448238  0.66095718  0.34079655     0.12850
C1674       C  0.25241443  0.61310202  0.36564573     0.62380
F1675       F  0.15129867  0.51171478  0.36480443    -0.22790
F1676       F  0.13420774  0.57480923  0.34235839    -0.20120
F1677       F  0.13312151  0.55834183  0.38866143    -0.19790
F1678       F  0.25777770  0.61666618  0.33801739    -0.19850
F1679       F  0.26835451  0.58078088  0.38055145    -0.20170
F1680       F  0.25764973  0.65365361  0.37334437    -0.22840
C1681       C  0.04452310  0.64924882  0.37827000    -0.05680
C1682       C  0.06267061  0.66736219  0.39483528     0.00250
C1683       C  0.08866487  0.65650016  0.39240498    -0.08320
C1684       C  0.09554626  0.63385076  0.37128649    -0.05700
C1685       C  0.07770926  0.61962654  0.35294462     0.00230
C1686       C  0.05159814  0.62538380  0.35761424    -0.08230
C1687       C  0.03059165  0.60833351  0.34075569     0.62140
H1688       H  0.02447129  0.65511712  0.38070217     0.12840
H1689       H  0.11547521  0.63192652  0.36698237     0.12850
C1690       C  0.10955864  0.66984041  0.41110733     0.62380
F1691       F  0.51452294  0.58099968  0.35833900    -0.22790
F1692       F  0.03979978  0.58371947  0.32231833    -0.20120
F1693       F  0.01681857  0.64420152  0.32625313    -0.19790
F1694       F  0.10267707  0.65846787  0.43841913    -0.19850
F1695       F  0.11379036  0.71541009  0.40410736    -0.20170
F1696       F  0.13227452  0.64828834  0.40862075    -0.22840
C1697       C  0.22878068  0.22147439  0.15306143    -0.05680
C1698       C  0.20811565  0.19372304  0.14770057     0.00250
C1699       C  0.19634624  0.20286270  0.12106418    -0.08320
C1700       C  0.20509620  0.23951750  0.10157435    -0.05700
C1701       C  0.22682704  0.26500858  0.10605630     0.00230
C1702       C  0.23803064  0.25738664  0.13295412    -0.08230
C1703       C  0.25731247  0.29006451  0.14138340     0.62140
H1704       H  0.23716162  0.21585661  0.17371958     0.12840
H1705       H  0.19475819  0.24834006  0.08214124     0.12850
C1706       C  0.17430654  0.17497407  0.11300637     0.62380
F1707       F  0.26373356  0.27938422  0.16926038    -0.22790
F1708       F  0.24701569  0.33266275  0.13599188    -0.20120
F1709       F  0.27938084  0.29041469  0.12692921    -0.19790
F1710       F  0.15366850  0.17886344  0.12898360    -0.19850
F1711       F  0.18155917  0.13056819  0.11662537    -0.20170
F1712       F  0.16653249  0.18850167  0.08566804    -0.22840
C1713       C  0.06451696  0.05116969  0.10535227    -0.05680
C1714       C  0.07350427  0.01106715  0.09880731     0.00250
C1715       C  0.09386049  0.98920135  0.11537120    -0.08320
C1716       C  0.10438091  0.00859069  0.13753552    -0.05700
C1717       C  0.09590462  0.05031752  0.14292079     0.00230
C1718       C  0.07562443  0.07207609  0.12580338    -0.08230
C1719       C  0.06670058  0.11928228  0.12692356     0.62140
H1720       H  0.04983177  0.06903075  0.09217814     0.12840
H1721       H  0.11980790  0.99176422  0.15033291     0.12850
C1722       C  0.10477257  0.94662287  0.10894722     0.62380
F1723       F  0.05075754  0.13710650  0.10477103    -0.22790
F1724       F  0.08751009  0.14745709  0.12611392    -0.20120
F1725       F  0.05330974  0.11891088  0.15066995    -0.19790
F1726       F  0.11446953  0.95504987  0.08268835    -0.19850
F1727       F  0.08577192  0.91470304  0.11018865    -0.20170
F1728       F  0.12412637  0.92954916  0.12749691    -0.22840
C1729       C  0.13006302  0.91453724  0.22383709    -0.05680
C1730       C  0.14087391  0.93026185  0.24641137     0.00250
C1731       C  0.14797943  0.89934625  0.27086505    -0.08320
C1732       C  0.14421324  0.85350001  0.27145282    -0.05700
C1733       C  0.13378198  0.83786858  0.24867804     0.00230
C1734       C  0.12534000  0.86890239  0.22495168    -0.08230
C1735       C  0.11075213  0.85555592  0.20075183     0.62140
H1736       H  0.12398837  0.93849717  0.20562795     0.12840
H1737       H  0.15052036  0.82949524  0.28953247     0.12850
C1738       C  0.16026995  0.91184062  0.29661392     0.62380
F1739       F  0.09169321  0.88637411  0.19136866    -0.22790
F1740       F  0.09917298  0.81416408  0.20789207    -0.20120
F1741       F  0.12722634  0.85478875  0.17950696    -0.19790
F1742       F  0.14392079  0.90070704  0.31834680    -0.19850
F1743       F  0.16626269  0.95662262  0.29369099    -0.20170
F1744       F  0.18262019  0.88790283  0.30321597    -0.22840
C1745       C  0.13573083  0.40397353  0.26894705    -0.05680
C1746       C  0.14816486  0.43076892  0.24654434     0.00250
C1747       C  0.16474285  0.40935380  0.23083730    -0.08320
C1748       C  0.16472331  0.36248026  0.23531878    -0.05700
C1749       C  0.15025429  0.33596181  0.25587907     0.00230
C1750       C  0.13745539  0.35711897  0.27481099    -0.08230
C1751       C  0.12637226  0.33157594  0.30153225     0.62140
H1752       H  0.12434944  0.41984293  0.28224311     0.12840
H1753       H  0.17610833  0.34608616  0.22228986     0.12850
C1754       C  0.18311493  0.43444591  0.21008072     0.62380
F1755       F  0.11824954  0.36009304  0.31830339    -0.22790
F1756       F  0.14484890  0.30404169  0.31631570    -0.20120
F1757       F  0.10569429  0.30611180  0.29608020    -0.19790
F1758       F  0.19846381  0.46180661  0.22273651    -0.19850
F1759       F  0.16998453  0.45974985  0.18810338    -0.20170
F1760       F  0.19892033  0.40589178  0.19957451    -0.22840
C1761       C  0.17357434  0.06755244  0.35930724    -0.05680
C1762       C  0.17269344  0.11419285  0.35877730     0.00250
C1763       C  0.18618427  0.13132130  0.37936779    -0.08320
C1764       C  0.20267564  0.10279851  0.39744546    -0.05700
C1765       C  0.20633053  0.05732952  0.39599052     0.00230
C1766       C  0.19052802  0.03871200  0.37739949    -0.08230
C1767       C  0.19320016  0.99000281  0.37506547     0.62140
H1768       H  0.16299185  0.05482532  0.34335049     0.12840
H1769       H  0.21427930  0.11714125  0.41173627     0.12850
C1770       C  0.18418471  0.18043237  0.38098671     0.62380
F1771       F  0.17707469  0.97880272  0.35482378    -0.22790
F1772       F  0.18739495  0.96281897  0.39991960    -0.20120
F1773       F  0.21791113  0.98169573  0.36849547    -0.19790
F1774       F  0.15882103  0.19200338  0.38138085    -0.19850
F1775       F  0.19519359  0.20645545  0.35825917    -0.20170
F1776       F  0.19620171  0.18974480  0.40457078    -0.23320
C1777       C  0.04746059  0.17159630  0.36976273    -0.05680
C1778       C  0.06459140  0.17760607  0.39119929     0.00250
C1779       C  0.08761185  0.15231439  0.39459692    -0.08320
C1780       C  0.09378528  0.12668246  0.37454433    -0.05700
C1781       C  0.07775879  0.12496607  0.35150910     0.00230
C1782       C  0.05351773  0.14543533  0.35018359    -0.08230
C1783       C  0.03405748  0.14292339  0.32730014     0.62140
H1784       H  0.02924924  0.18863448  0.36770470     0.12840
H1785       H  0.11246086  0.11155509  0.37520202     0.12850
C1786       C  0.10591522  0.15250987  0.41888237     0.62380
F1787       F  0.01115216  0.12779143  0.33877792    -0.22790
F1788       F  0.04131795  0.11404983  0.31039957    -0.20120
F1789       F  0.03053621  0.18516375  0.31141613    -0.19790
F1790       F  0.09305385  0.14291513  0.44337841    -0.19850
F1791       F  0.11728340  0.19403194  0.41635725    -0.20170
F1792       F  0.12496396  0.12086586  0.42013261    -0.22840
C1793       C  0.35465105  0.77950828  0.12875235    -0.05680
C1794       C  0.34071136  0.80715054  0.14310739     0.00250
C1795       C  0.31417218  0.81388739  0.13612859    -0.08320
C1796       C  0.30382676  0.79634059  0.11399830    -0.05700
C1797       C  0.31835407  0.77283248  0.09828160     0.00230
C1798       C  0.34368749  0.76152988  0.10669261    -0.08230
C1799       C  0.35873445  0.73045877  0.09260514     0.62140
H1800       H  0.37442629  0.77255575  0.13454744     0.12840
H1801       H  0.28424980  0.80355524  0.10732988     0.12850
C1802       C  0.29624459  0.84010108  0.15086722     0.62380
F1803       F  0.38309297  0.72327566  0.10393403    -0.22790
F1804       F  0.36060802  0.74818748  0.06483457    -0.20120
F1805       F  0.34642516  0.68958251  0.09556249    -0.19790
F1806       F  0.30377161  0.88441192  0.14722216    -0.19850
F1807       F  0.29607663  0.82099175  0.17859426    -0.20170
F1808       F  0.27134942  0.83984839  0.14089035    -0.22840
C1809       C  0.44259439  0.98528592  0.12593235    -0.05680
C1810       C  0.45266206  0.94219218  0.13495847     0.00250
C1811       C  0.47677675  0.93269405  0.12531318    -0.08320
C1812       C  0.49022740  0.96724263  0.10777539    -0.05700
C1813       C  0.48040450  0.01115079  0.10004776     0.00230
C1814       C  0.45645215  0.02031687  0.11027804    -0.08230
C1815       C  0.44476737  0.06685686  0.10544954     0.62140
H1816       H  0.42419553  0.99267493  0.13311695     0.12840
H1817       H  0.00784633  0.95953397  0.09883394     0.12850
C1818       C  0.48737285  0.88567937  0.13236455     0.62380
F1819       F  0.43532020  0.07507349  0.12990377    -0.22790
F1820       F  0.42496063  0.06936237  0.08617471    -0.20120
F1821       F  0.46226508  0.10023256  0.09640312    -0.19790
F1822       F  0.47080169  0.85678081  0.12227292    -0.19850
F1823       F  0.49001895  0.87229532  0.16060978    -0.20170
F1824       F  0.01092032  0.88270039  0.12096383    -0.22840
C1825       C  0.49044099  0.73835463  0.23619056    -0.05680
C1826       C  0.49170187  0.78502611  0.22900250     0.00250
C1827       C  0.01553886  0.80706540  0.22983952    -0.08320
C1828       C  0.03730002  0.78132441  0.23839086    -0.05700
C1829       C  0.03599212  0.73474123  0.24591380     0.00230
C1830       C  0.51214633  0.71271969  0.24532958    -0.08230
C1831       C  0.50831807  0.66274640  0.25498541     0.62140
H1832       H  0.47201001  0.72198125  0.23662097     0.12840
H1833       H  0.05571468  0.79771167  0.23806073     0.12850
C1834       C  0.01932977  0.85734419  0.22163582     0.62380
F1835       F  0.48937714  0.65565125  0.27427121    -0.22790
F1836       F  0.02995654  0.64122886  0.26721484    -0.20120
F1837       F  0.50079173  0.64375360  0.23273406    -0.19790
F1838       F  0.02897376  0.87371836  0.24412129    -0.19850
F1839       F  0.49723384  0.88031324  0.21230597    -0.20170
F1840       F  0.03665756  0.86598497  0.20067947    -0.22840
C1841       C  0.27377395  0.97691989  0.26037257    -0.05680
C1842       C  0.29407681  0.00105700  0.24694433     0.00250
C1843       C  0.28910645  0.04178398  0.22821949    -0.08320
C1844       C  0.26379188  0.05679723  0.22363424    -0.05700
C1845       C  0.24344004  0.03206772  0.23668726     0.00230
C1846       C  0.24846579  0.99117765  0.25518214    -0.08230
C1847       C  0.22785262  0.96124662  0.26972413     0.62140
H1848       H  0.27757979  0.94498040  0.27377907     0.12840
H1849       H  0.25993916  0.08885176  0.21025875     0.12850
C1850       C  0.30965108  0.07064333  0.21264388     0.62380
F1851       F  0.23195966  0.91744958  0.26694332    -0.22790
F1852       F  0.20385117  0.97323068  0.25889007    -0.20120
F1853       F  0.22863144  0.96324756  0.29749864    -0.19790
F1854       F  0.30577942  0.07245465  0.18461764    -0.19850
F1855       F  0.33397970  0.05492576  0.21997323    -0.20170
F1856       F  0.30814584  0.11356120  0.21797751    -0.22840
C1857       C  0.30100169  0.90217239  0.37842945    -0.05680
C1858       C  0.31820316  0.92010298  0.39603489     0.00250
C1859       C  0.34462715  0.91028918  0.39460073    -0.08320
C1860       C  0.35273109  0.88776416  0.37390236    -0.05700
C1861       C  0.33581455  0.87449426  0.35451490     0.00230
C1862       C  0.30943563  0.87968749  0.35766586    -0.08230
C1863       C  0.29050549  0.86224947  0.33854335     0.62140
H1864       H  0.28082848  0.90757500  0.38017567     0.12840
H1865       H  0.37287954  0.88448792  0.37091349     0.12850
C1866       C  0.36478995  0.92468196  0.41380608     0.62380
F1867       F  0.26561612  0.86885228  0.34530001    -0.22790
F1868       F  0.29428248  0.81681202  0.34037075    -0.20120
F1869       F  0.29392640  0.88377584  0.31160924    -0.19790
F1870       F  0.35763827  0.91239673  0.44094087    -0.19850
F1871       F  0.36807200  0.97055298  0.40713833    -0.20170
F1872       F  0.38812528  0.90487629  0.41164755    -0.22840
C1873       C  0.42222579  0.84098237  0.35935263    -0.05680
C1874       C  0.43654549  0.87829640  0.34676318     0.00250
C1875       C  0.46326421  0.87821483  0.35232177    -0.08320
C1876       C  0.47467505  0.84012686  0.36855623    -0.05700
C1877       C  0.46025061  0.80496789  0.38313080     0.00230
C1878       C  0.43355751  0.80514357  0.37829530    -0.08230
C1879       C  0.41732490  0.76749136  0.39338220     0.62140
H1880       H  0.40218541  0.83967483  0.35400014     0.12840
H1881       H  0.99503291  0.84018993  0.37268694     0.12850
C1882       C  0.48021927  0.91807273  0.34160278     0.62380
F1883       F  0.39207074  0.77172771  0.38454665    -0.22790
F1884       F  0.41846698  0.76751218  0.42135504    -0.20120
F1885       F  0.42630975  0.72695052  0.38885238    -0.19790
F1886       F  0.46709654  0.95795296  0.33931155    -0.19850
F1887       F  0.48930996  0.91422461  0.31622311    -0.20170
F1888       F  0.00089498  0.92001809  0.35924663    -0.22840
C1889       C  0.33156757  0.25009766  0.15545820    -0.05680
C1890       C  0.35148745  0.28175515  0.15182042     0.00250
C1891       C  0.36438099  0.28967990  0.12637085    -0.08320
C1892       C  0.35468884  0.27049001  0.10449639    -0.05700
C1893       C  0.33295320  0.24327110  0.10708448     0.00230
C1894       C  0.32273521  0.22936034  0.13352884    -0.08230
C1895       C  0.30283572  0.19260547  0.13819823     0.62140
H1896       H  0.32290555  0.24195353  0.17545356     0.12840
H1897       H  0.36247013  0.28034103  0.08417962     0.12850
C1898       C  0.38723449  0.32077054  0.12146123     0.62380
F1899       F  0.29489900  0.18404271  0.16520534    -0.22790
F1900       F  0.31318828  0.15377172  0.13254147    -0.20120
F1901       F  0.28179811  0.20405051  0.12095600    -0.19790
F1902       F  0.38160176  0.36110935  0.12876966    -0.19850
F1903       F  0.40792914  0.30149660  0.13710629    -0.20170
F1904       F  0.39410386  0.32945607  0.09405707    -0.22840
C1905       C  0.43556529  0.50328546  0.09556283    -0.05680
C1906       C  0.46152341  0.51003347  0.10028495     0.00250
C1907       C  0.47367069  0.48265754  0.12342359    -0.08320
C1908       C  0.46132268  0.44464028  0.13754709    -0.05700
C1909       C  0.43542562  0.43749664  0.13295943     0.00230
C1910       C  0.42204902  0.46826626  0.11193979    -0.08230
C1911       C  0.39387578  0.46329010  0.10526150     0.62140
H1912       H  0.42639597  0.52311665  0.07738609     0.12840
H1913       H  0.47114813  0.42400369  0.15506566     0.12850
C1914       C  0.49997085  0.49248336  0.13350995     0.62380
F1915       F  0.38380887  0.50344343  0.09126897    -0.22790
F1916       F  0.37977665  0.45059347  0.12865119    -0.20120
F1917       F  0.39094948  0.43158569  0.08875756    -0.19790
F1918       F  0.50807771  0.53394376  0.12032298    -0.19850
F1919       F  0.01663600  0.45984833  0.12897497    -0.20170
F1920       F  0.99974972  0.49268334  0.16152174    -0.22840
C1921       C  0.01717068  0.31884586  0.23334475    -0.05680
C1922       C  0.49436235  0.29445848  0.23826520     0.00250
C1923       C  0.49577927  0.24717976  0.24638776    -0.08320
C1924       C  0.01971358  0.22603301  0.24945144    -0.05700
C1925       C  0.04238560  0.25020087  0.24429215     0.00230
C1926       C  0.04115891  0.29727486  0.23527618    -0.08230
C1927       C  0.06491039  0.32404052  0.22638410     0.62140
H1928       H  0.51597540  0.35492291  0.22727737     0.12840
H1929       H  0.02092609  0.18989674  0.25521144     0.12850
C1930       C  0.47201165  0.21891024  0.25075590     0.62380
F1931       F  0.05967118  0.36911193  0.21752615    -0.22790
F1932       F  0.07573353  0.30817795  0.20489463    -0.20120
F1933       F  0.08223884  0.31979151  0.24820257    -0.19790
F1934       F  0.45890468  0.22394488  0.22582268    -0.19850
F1935       F  0.45701779  0.23263377  0.27015175    -0.20170
F1936       F  0.47735793  0.17387575  0.25968875    -0.22840
C1937       C  0.38591937  0.65784765  0.26603831    -0.05680
C1938       C  0.38475256  0.68502036  0.23953441     0.00250
C1939       C  0.38016955  0.66509598  0.21621749    -0.08320
C1940       C  0.37781635  0.61838493  0.22031631    -0.05700
C1941       C  0.37968729  0.59094661  0.24677298     0.00230
C1942       C  0.38309962  0.61115080  0.27026303    -0.08230
C1943       C  0.38401158  0.58428539  0.29963135     0.62140
H1944       H  0.38909131  0.67377632  0.28368180     0.12840
H1945       H  0.37454770  0.60280075  0.20254987     0.12850
C1946       C  0.37674615  0.69272655  0.18731398     0.62380
F1947       F  0.38837952  0.61117659  0.31898445    -0.22790
F1948       F  0.40339945  0.55304384  0.30267856    -0.20120
F1949       F  0.36095720  0.56284590  0.30544551    -0.19790
F1950       F  0.39935105  0.71376874  0.17887284    -0.19850
F1951       F  0.35797034  0.72430704  0.18730213    -0.20170
F1952       F  0.36951658  0.66675429  0.16820944    -0.22840
C1953       C  0.37267984  0.10598282  0.25978354    -0.05680
C1954       C  0.39374880  0.09077612  0.24737216     0.00250
C1955       C  0.41150631  0.12187491  0.23370080    -0.08320
C1956       C  0.40743695  0.16712940  0.23307298    -0.05700
C1957       C  0.38752601  0.18238519  0.24702622     0.00230
C1958       C  0.36902442  0.15154884  0.25972148    -0.08230
C1959       C  0.34503268  0.16604955  0.27207730     0.62140
H1960       H  0.35886324  0.08176186  0.26937276     0.12840
H1961       H  0.42001243  0.19109792  0.22146016     0.12850
C1962       C  0.43501604  0.10803479  0.22030183     0.62380
F1963       F  0.32730683  0.13177766  0.27707624    -0.22790
F1964       F  0.33373651  0.20137519  0.25400816    -0.20120
F1965       F  0.35100936  0.17871935  0.29693939    -0.19790
F1966       F  0.42794023  0.09317594  0.19643968    -0.19850
F1967       F  0.44772402  0.07488282  0.23864308    -0.20170
F1968       F  0.45189477  0.14305170  0.21301256    -0.22840
C1969       C  0.26734213  0.47431252  0.26423788    -0.05680
C1970       C  0.28581118  0.48734536  0.24453327     0.00250
C1971       C  0.28034696  0.52068247  0.22087549    -0.08320
C1972       C  0.25600863  0.53999739  0.21768336    -0.05700
C1973       C  0.23739114  0.52652110  0.23726283     0.00230
C1974       C  0.24283782  0.49248823  0.26068716    -0.08230
C1975       C  0.22356444  0.47398745  0.28235611     0.62140
H1976       H  0.27179991  0.44819470  0.28197163     0.12840
H1977       H  0.25155795  0.56674697  0.20035492     0.12850
C1978       C  0.30041065  0.53669464  0.19966640     0.62380
F1979       F  0.22886961  0.49051821  0.30607490    -0.22790
F1980       F  0.22510844  0.42772545  0.28851246    -0.20120
F1981       F  0.19881832  0.48479521  0.27378315    -0.19790
F1982       F  0.30639157  0.50274983  0.18595529    -0.19850
F1983       F  0.32212255  0.54934936  0.21272053    -0.20170
F1984       F  0.29209191  0.57308567  0.18018789    -0.22840
C1985       C  0.32621260  0.37695698  0.40706469    -0.05680
C1986       C  0.30800225  0.41175449  0.40212890     0.00250
C1987       C  0.29573175  0.42180142  0.37573284    -0.08320
C1988       C  0.30451740  0.40150195  0.35436118    -0.05700
C1989       C  0.32478201  0.37070708  0.35831016     0.00230
C1990       C  0.33398847  0.35481369  0.38568698    -0.08230
C1991       C  0.35133450  0.31432294  0.39220074     0.62140
H1992       H  0.33429394  0.36725253  0.42775528     0.12840
H1993       H  0.29680688  0.41210606  0.33355896     0.12850
C1994       C  0.27431124  0.45577550  0.36960084     0.62380
F1995       F  0.35805252  0.30396858  0.41999724    -0.22790
F1996       F  0.37334707  0.32162720  0.37741165    -0.20120
F1997       F  0.33877425  0.27784939  0.38516873    -0.19790
F1998       F  0.28215808  0.49595508  0.37620227    -0.19850
F1999       F  0.25336953  0.43999880  0.38487528    -0.20170
F2000       F  0.26686450  0.46380716  0.34201770    -0.22840
C2001       C  0.45471248  0.37669324  0.34331648    -0.05680
C2002       C  0.43113170  0.39456512  0.34891019     0.00250
C2003       C  0.42074496  0.37920890  0.37517713    -0.08320
C2004       C  0.43217049  0.34173116  0.39267055    -0.05700
C2005       C  0.45486188  0.32211579  0.38579133     0.00230
C2006       C  0.46608869  0.33972005  0.36055148    -0.08230
C2007       C  0.49062765  0.31991822  0.35229591     0.62140
H2008       H  0.46404168  0.39044530  0.32444213     0.12840
H2009       H  0.42535195  0.33095051  0.41340884     0.12850
C2010       C  0.40118621  0.40689665  0.38666047     0.62380
F2011       F  0.49751731  0.33933400  0.32581488    -0.22790
F2012       F  0.48730551  0.27450069  0.35325044    -0.20120
F2013       F  0.01046138  0.32615902  0.37016430    -0.19790
F2014       F  0.37857149  0.40960135  0.37171547    -0.19850
F2015       F  0.41061038  0.44972761  0.38553617    -0.20170
F2016       F  0.39600738  0.38905247  0.41391243    -0.22840
O2017       O  0.84800275  0.33213526  0.32667890    -0.75190
O2018       O  0.84387082  0.40811348  0.31867916    -0.54100
C2019       C  0.83990238  0.36917687  0.33309617     0.78540
O2020       O  0.96881411  0.34820159  0.25353222    -0.59790
O2021       O  0.95058511  0.30913961  0.22307139    -0.52820
C2022       C  0.96972361  0.31916996  0.23780409     0.70550
O2023       O  0.93060198  0.43658802  0.30363348    -0.74350
O2024       O  0.89341784  0.42806434  0.32315153    -0.54910
C2025       C  0.91786026  0.42478642  0.32518134     0.76550
O2026       O  0.87764894  0.24231858  0.26894362    -0.59490
O2027       O  0.89851839  0.25691963  0.22818396    -0.52610
C2028       C  0.88756129  0.23043767  0.24799223     0.73150
Zr2029     Zr  0.87037468  0.31005073  0.28639846     2.54710
O2030       O  0.88950002  0.25933017  0.32574496    -0.80060
O2031       O  0.83033433  0.26881468  0.29079569    -0.93480
Zr2032     Zr  0.93436170  0.38329117  0.27356004     2.64680
O2033       O  0.94667307  0.31889342  0.30898569    -0.98430
O2034       O  0.97503250  0.42119894  0.27642380    -0.80490
O2035       O  0.89435350  0.37077022  0.29581775    -0.83850
O2036       O  0.91105776  0.32109796  0.26425458    -2.18560
O2037       O  0.84177052  0.32737735  0.18527087    -0.67240
O2038       O  0.88265186  0.30529501  0.18125409    -0.51810
C2039       C  0.85893680  0.30596890  0.17449722     0.71530
O2040       O  0.88815815  0.52925020  0.22634133    -0.60150
O2041       O  0.87310864  0.51483535  0.26977635    -0.52130
C2042       C  0.88013992  0.54183489  0.24796930     0.73330
O2043       O  0.91364699  0.45098526  0.16868567    -0.71540
O2044       O  0.92368990  0.37746162  0.17077969    -0.50220
C2045       C  0.92270001  0.41931560  0.15860279     0.74720
O2046       O  0.81086751  0.43475959  0.22968554    -0.66870
O2047       O  0.82554439  0.46463216  0.26651815    -0.54070
C2048       C  0.80910797  0.46083058  0.24714954     0.73100
Zr2049     Zr  0.83955818  0.37960625  0.21867824     2.77540
O2050       O  0.81906008  0.41734300  0.17568010    -0.97620
O2051       O  0.80243855  0.33267588  0.23125945    -0.78440
Zr2052     Zr  0.89900635  0.46110253  0.21110703     2.70070
O2053       O  0.87827554  0.51436746  0.17415367    -0.79690
O2054       O  0.93910194  0.50212105  0.20657956    -0.98770
Zr2055     Zr  0.86811799  0.43428021  0.27903919     2.21500
Zr2056     Zr  0.90637822  0.33631540  0.21521847     2.11130
O2057       O  0.87894793  0.39760224  0.19809051    -2.47460
O2058       O  0.85942926  0.44433449  0.23064203    -0.79480
O2059       O  0.86635104  0.32011852  0.23728323    -0.71680
O2060       O  0.90858694  0.44851428  0.25832542    -2.32640
O2061       O  0.84475223  0.37195757  0.26762751    -2.28840
O2062       O  0.92769835  0.40024495  0.22524463    -0.73440
H2063       H  0.92091279  0.29403149  0.26951037     0.78560
H2064       H  0.91651975  0.47565117  0.26187836     0.79650
H2065       H  0.87618499  0.40122359  0.17838545     0.81870
H2066       H  0.82825815  0.36954452  0.27593261     0.79480
H2067       H  0.97404176  0.44755258  0.26116634     0.42510
H2068       H  0.95159915  0.48089928  0.20167584     0.41480
H2069       H  0.86031138  0.50438259  0.17416346     0.41160
H2070       H  0.83287859  0.42334984  0.16223978     0.39090
H2071       H  0.80856047  0.30174552  0.23198869     0.42230
H2072       H  0.81686749  0.29183454  0.28909942     0.37010
H2073       H  0.89104295  0.27720169  0.34049885     0.43130
H2074       H  0.93069963  0.30417216  0.31591771     0.39540
H2075       H  0.80842444  0.39411626  0.16932071     0.44460
H2076       H  0.83015963  0.25363807  0.31041270     0.43180
H2077       H  0.95518269  0.29725721  0.29962089     0.43320
H2078       H  0.93674256  0.52506194  0.18954684     0.43680
O2079       O  0.90331862  0.03058472  0.22584471    -0.75190
O2080       O  0.88755225  0.01588659  0.26919291    -0.54100
C2081       C  0.89534126  0.04261317  0.24767197     0.78540
O2082       O  0.84156919  0.85402503  0.17697046    -0.59790
O2083       O  0.87818828  0.81935215  0.17022259    -0.52820
C2084       C  0.85437538  0.82802704  0.16482594     0.70550
O2085       O  0.81910398  0.95582996  0.22608627    -0.74350
O2086       O  0.83480170  0.97434684  0.26618560    -0.54910
C2087       C  0.81782690  0.97602977  0.24651659     0.76550
O2088       O  0.94485527  0.93816607  0.18116091    -0.59490
O2089       O  0.92867135  0.88058117  0.16350192    -0.52610
C2090       C  0.94177325  0.91743121  0.16123178     0.73150
Zr2091     Zr  0.91251168  0.96386604  0.20772187     2.54710
O2092       O  0.89710473  0.01543400  0.16679554    -0.80060
O2093       O  0.95399609  0.00018090  0.20414369    -0.93480
Zr2094     Zr  0.84636407  0.90324906  0.21038779     2.64680
O2095       O  0.83556051  0.95774562  0.16878482    -0.98430
O2096       O  0.80298474  0.87515439  0.21526078    -0.80490
O2097       O  0.87164529  0.95792795  0.22632061    -0.83850
O2098       O  0.88688559  0.91008514  0.19026863    -2.18560
O2099       O  0.96699236  0.83056910  0.24939754    -0.67240
O2100       O  0.94961353  0.80595820  0.21201695    -0.51810
C2101       C  0.96785998  0.80908934  0.22960422     0.71530
O2102       O  0.85168824  0.83748118  0.31832387    -0.60150
O2103       O  0.85150509  0.91367762  0.31393118    -0.52130
C2104       C  0.84655512  0.87428447  0.32698166     0.73330
O2105       O  0.87532809  0.74816046  0.25777796    -0.71540
O2106       O  0.89847276  0.75867041  0.21845718    -0.50220
C2107       C  0.88621017  0.73399333  0.23808043     0.74720
O2108       O  0.93890368  0.92196138  0.30239784    -0.66870
O2109       O  0.90082780  0.91756992  0.32017494    -0.54070
C2110       C  0.92500827  0.91044012  0.32297008     0.73100
Zr2111     Zr  0.93793925  0.87455600  0.26916518     2.77540
O2112       O  0.95303089  0.81820832  0.30807346    -0.97620
O2113       O  0.97939800  0.91056003  0.26378900    -0.78440
Zr2114     Zr  0.86972714  0.81585949  0.27568625     2.70070
O2115       O  0.88554220  0.75941332  0.31413974    -0.79690
O2116       O  0.82701100  0.78427524  0.27702298    -0.98770
Zr2117     Zr  0.87680592  0.93821219  0.27513988     2.21500
Zr2118     Zr  0.90704230  0.83894094  0.20574642     2.11130
O2119       O  0.91097605  0.81980050  0.25537848    -2.47460
O2120       O  0.89736323  0.86810188  0.28951806    -0.79480
O2121       O  0.93273035  0.89390307  0.22115813    -0.71680
O2122       O  0.84955941  0.88487141  0.25940260    -2.32640
O2123       O  0.91831468  0.94606429  0.25594471    -2.28840
O2124       O  0.86595897  0.83349032  0.22636996    -0.73440
H2125       H  0.88523398  0.91733934  0.17037012     0.78560
H2126       H  0.83290202  0.88461947  0.26722254     0.79650
H2127       H  0.91930435  0.79113939  0.26080974     0.81870
H2128       H  0.92817818  0.96988085  0.26152715     0.79480
H2129       H  0.80354786  0.85198849  0.23233363     0.42510
H2130       H  0.82417919  0.77631113  0.25863057     0.41480
H2131       H  0.90036798  0.77372234  0.32176897     0.41160
H2132       H  0.94882031  0.78913131  0.30283830     0.39090
H2133       H  0.97761796  0.93318149  0.24654772     0.42230
H2134       H  0.95767750  0.00793307  0.22240218     0.37010
H2135       H  0.87907088  0.00705128  0.16449162     0.43130
H2136       H  0.84077835  0.94378801  0.15326052     0.39540
H2137       H  0.97182227  0.82011980  0.30742040     0.44460
H2138       H  0.95174336  0.02887939  0.19105789     0.43180
H2139       H  0.81672587  0.95784732  0.16766221     0.43320
H2140       H  0.82862866  0.75512687  0.28990167     0.43680
O2141       O  0.65627552  0.27545319  0.23315589    -0.75190
O2142       O  0.63745741  0.26070800  0.27463640    -0.54100
C2143       C  0.64794542  0.28755120  0.25489792     0.78540
O2144       O  0.59464040  0.09768508  0.17679198    -0.59790
O2145       O  0.63190874  0.06210477  0.17309727    -0.52820
C2146       C  0.60839041  0.07111167  0.16574521     0.70550
O2147       O  0.56706003  0.19977757  0.22573965    -0.74350
O2148       O  0.58352935  0.22461339  0.26356841    -0.54910
C2149       C  0.56614448  0.22375872  0.24453176     0.76550
O2150       O  0.69830393  0.17715895  0.19492340    -0.59490
O2151       O  0.68275977  0.12847640  0.17063778    -0.52610
C2152       C  0.69626988  0.16381238  0.17207234     0.73150
Zr2153     Zr  0.66211612  0.21095237  0.21131615     2.54710
O2154       O  0.64454908  0.24886886  0.16687612    -0.80060
O2155       O  0.69354583  0.26812566  0.19427522    -0.93480
Zr2156     Zr  0.59625569  0.14846746  0.21035959     2.64680
O2157       O  0.58653263  0.20577942  0.16977013    -0.98430
O2158       O  0.55362560  0.11664785  0.21071212    -0.80490
O2159       O  0.62029449  0.20428159  0.22735319    -0.83850
O2160       O  0.63800237  0.15529720  0.19346721    -2.18560
O2161       O  0.71684102  0.07645555  0.25659657    -0.67240
O2162       O  0.70174311  0.05325598  0.21779550    -0.51810
C2163       C  0.71898980  0.05538004  0.23668152     0.71530
O2164       O  0.59751501  0.08646984  0.31812725    -0.60150
O2165       O  0.59561206  0.16280118  0.31208016    -0.52130
C2166       C  0.59073487  0.12367148  0.32543142     0.73330
O2167       O  0.62806778  0.99278849  0.26343191    -0.71540
O2168       O  0.65210622  0.00392752  0.22457263    -0.50220
C2169       C  0.64064519  0.97891326  0.24475441     0.74720
O2170       O  0.68512163  0.15165775  0.31564316    -0.66870
O2171       O  0.64341923  0.15421760  0.32349805    -0.54070
C2172       C  0.66658309  0.14387861  0.33183552     0.73100
Zr2173     Zr  0.68637963  0.12209930  0.27406685     2.77540
O2174       O  0.71002380  0.06670029  0.30735853    -0.97620
O2175       O  0.72270287  0.17280514  0.26855932    -0.78440
Zr2176     Zr  0.61712076  0.06265895  0.27678026     2.70070
O2177       O  0.62145542  0.00351181  0.31738458    -0.79690
O2178       O  0.57410391  0.03721206  0.26849640    -0.98770
Zr2179     Zr  0.62421276  0.18459641  0.27636034     2.21500
Zr2180     Zr  0.65863684  0.08461611  0.21009868     2.11130
O2181       O  0.65997536  0.06692913  0.25988955    -2.47460
O2182       O  0.64447346  0.11461895  0.29118269    -0.79480
O2183       O  0.68311367  0.14131179  0.22604364    -0.71680
O2184       O  0.59740101  0.13161434  0.25940029    -2.32640
O2185       O  0.66678703  0.19311894  0.26013719    -2.28840
O2186       O  0.61615030  0.07905130  0.22751715    -0.73440
H2187       H  0.63714517  0.16156715  0.17361377     0.78560
H2188       H  0.58039426  0.13163873  0.26633062     0.79650
H2189       H  0.66856148  0.03879237  0.26632039     0.81870
H2190       H  0.67671451  0.21480487  0.26784027     0.79480
H2191       H  0.55624492  0.08389884  0.21595425     0.42510
H2192       H  0.57609595  0.01632877  0.25557363     0.41480
H2193       H  0.63991756  0.00237359  0.32175844     0.41160
H2194       H  0.69760630  0.04268900  0.31382420     0.39090
H2195       H  0.72855125  0.17273220  0.24966596     0.42230
H2196       H  0.70286264  0.27377886  0.21099552     0.37010
H2197       H  0.63255889  0.27107491  0.17156744     0.43130
H2198       H  0.59943232  0.20232012  0.15612764     0.39540
H2199       H  0.71398091  0.08080025  0.32346004     0.44460
H2200       H  0.68370733  0.29583948  0.18740142     0.43180
H2201       H  0.57030344  0.19613484  0.16208216     0.43320
H2202       H  0.56955901  0.01776474  0.28616402     0.43680
O2203       O  0.68819454  0.70002312  0.17836535    -0.75190
O2204       O  0.67836679  0.63371233  0.16547263    -0.54100
C2205       C  0.68893415  0.67339769  0.16134499     0.78540
O2206       O  0.68105241  0.66639044  0.30680546    -0.59790
O2207       O  0.64262980  0.65497778  0.32255860    -0.52820
C2208       C  0.66699553  0.65008605  0.32657718     0.70550
O2209       O  0.71237012  0.57459570  0.25596232    -0.74350
O2210       O  0.69873169  0.55628877  0.21516837    -0.54910
C2211       C  0.71461883  0.55426663  0.23574894     0.76550
O2212       O  0.64387880  0.77885144  0.22678164    -0.59490
O2213       O  0.62857084  0.76168421  0.27039550    -0.52610
C2214       C  0.63526491  0.78961747  0.24873552     0.73150
Zr2215     Zr  0.65625308  0.71300938  0.20937910     2.54710
O2216       O  0.69190615  0.76449716  0.20915866    -0.80060
O2217       O  0.63855457  0.76033635  0.16777182    -0.93480
Zr2218     Zr  0.68323556  0.62486034  0.27083541     2.64680
O2219       O  0.72366780  0.66472733  0.26721334    -0.98430
O2220       O  0.69945571  0.56983914  0.30976050    -0.80490
O2221       O  0.67980556  0.64562863  0.22251843    -0.83850
O2222       O  0.66186809  0.69452031  0.25779511    -2.18560
O2223       O  0.56181953  0.68852628  0.22696684    -0.67240
O2224       O  0.57737863  0.71404664  0.26498338    -0.51810
C2225       C  0.55996494  0.71053143  0.24648048     0.71530
O2226       O  0.63040023  0.49366291  0.26032885    -0.60150
O2227       O  0.65401965  0.50660520  0.22157304    -0.52130
C2228       C  0.64395786  0.48026155  0.24214745     0.73330
O2229       O  0.59346338  0.58345612  0.31579352    -0.71540
O2230       O  0.59237529  0.65949002  0.31224481    -0.50220
C2231       C  0.58751958  0.61988289  0.32479078     0.74720
O2232       O  0.59057168  0.59231574  0.17745734    -0.66870
O2233       O  0.62876480  0.56078338  0.17192886    -0.54070
C2234       C  0.60471672  0.56661596  0.16632083     0.73100
Zr2235     Zr  0.59274913  0.64465510  0.20921981     2.77540
O2236       O  0.55121709  0.60955284  0.20647747    -0.97620
O2237       O  0.58285978  0.69931040  0.16744764    -0.78440
Zr2238     Zr  0.61530161  0.56054208  0.27470934     2.70070
O2239       O  0.57327254  0.53122472  0.26601284    -0.79690
O2240       O  0.62242182  0.49666264  0.31212989    -0.98770
Zr2241     Zr  0.65613392  0.58802809  0.20658484     2.21500
Zr2242     Zr  0.62012166  0.68220335  0.27587224     2.11130
O2243       O  0.59451313  0.62794590  0.25831568    -2.47460
O2244       O  0.61424340  0.57712232  0.22539931    -0.79480
O2245       O  0.61510219  0.70166345  0.22678648    -0.71680
O2246       O  0.65739395  0.57031493  0.25622472    -2.32640
O2247       O  0.63372518  0.65655199  0.19072319    -2.28840
O2248       O  0.64192834  0.61339965  0.28970861    -0.73440
H2249       H  0.67082379  0.71841510  0.26438932     0.78560
H2250       H  0.66668103  0.54302387  0.26265268     0.79650
H2251       H  0.57764931  0.62580396  0.26568134     0.81870
H2252       H  0.63256950  0.66334271  0.17079934     0.79480
H2253       H  0.68558929  0.54753736  0.31365808     0.42510
H2254       H  0.64078868  0.49802299  0.31688259     0.41480
H2255       H  0.57536264  0.51679980  0.24984251     0.41160
H2256       H  0.54572782  0.60158520  0.22582046     0.39090
H2257       H  0.57754004  0.72643144  0.17414529     0.42230
H2258       H  0.62139284  0.76831984  0.17299774     0.37010
H2259       H  0.70482646  0.74735387  0.22183020     0.43130
H2260       H  0.71945844  0.69544039  0.26953345     0.39540
H2261       H  0.53967311  0.63401291  0.19760354     0.44460
H2262       H  0.63524521  0.74021807  0.15453676     0.43180
H2263       H  0.73326012  0.65159655  0.28437416     0.43320
H2264       H  0.61354583  0.50363736  0.32820806     0.43680
O2265       O  0.72141051  0.30843682  0.06102171    -0.75190
O2266       O  0.76130189  0.30236105  0.07756629    -0.54100
C2267       C  0.73711190  0.29600473  0.08105044     0.78540
O2268       O  0.77122203  0.13823371  0.00947474    -0.59790
O2269       O  0.75030703  0.15866823  0.96754197    -0.52820
C2270       C  0.75933138  0.12917083  0.98809861     0.70550
O2271       O  0.81018691  0.21458933  0.07031228    -0.74350
O2272       O  0.81002834  0.28894978  0.07265073    -0.54910
C2273       C  0.81653336  0.24829550  0.08180425     0.76550
O2274       O  0.68743326  0.23661000  0.99859599    -0.59490
O2275       O  0.70287956  0.21265888  0.96118553    -0.52610
C2276       C  0.68526816  0.21520854  0.97860984     0.73150
Zr2277     Zr  0.72051503  0.27251218  0.02153594     2.54710
O2278       O  0.70883088  0.20245871  0.05132377    -0.80060
O2279       O  0.67979541  0.30978437  0.02284057    -0.93480
Zr2280     Zr  0.78478472  0.20254277  0.02837735     2.64680
O2281       O  0.77040835  0.15582312  0.07085392    -0.98430
O2282       O  0.82296506  0.15866356  0.02604808    -0.80490
O2283       O  0.76101488  0.25746906  0.04368506    -0.83850
O2284       O  0.74357330  0.21675435  0.00596626    -2.18560
O2285       O  0.71560613  0.35398238  0.93773822    -0.67240
O2286       O  0.72628390  0.29761306  0.91693274    -0.51810
C2287       C  0.71641443  0.33736543  0.91618926     0.71530
O2288       O  0.84556833  0.32888881  0.99095405    -0.60150
O2289       O  0.82940280  0.35043110  0.02914451    -0.52130
C2290       C  0.84742849  0.34787325  0.01225882     0.73330
O2291       O  0.81185361  0.24896716  0.92765547    -0.71540
O2292       O  0.77199314  0.22208291  0.92019311    -0.50220
C2293       C  0.79563047  0.22828555  0.91416418     0.74720
O2294       O  0.76733476  0.42613749  0.98314533    -0.66870
O2295       O  0.78062332  0.40568463  0.02818660    -0.54070
C2296       C  0.77548708  0.43508929  0.00610351     0.73100
Zr2297     Zr  0.75249514  0.36288532  0.96530119     2.77540
O2298       O  0.77826537  0.39845154  0.92632516    -0.97620
O2299       O  0.72300949  0.42310296  0.96929244    -0.78440
Zr2300     Zr  0.81361823  0.28798166  0.96787461     2.70070
O2301       O  0.83436729  0.33950707  0.93117263    -0.79690
O2302       O  0.84970429  0.23692410  0.97566021    -0.98770
Zr2303     Zr  0.78553191  0.32401013  0.03377073     2.21500
Zr2304     Zr  0.74672365  0.24135667  0.95695428     2.11130
O2305       O  0.77297037  0.30643812  0.94631605    -2.47460
O2306       O  0.79269511  0.34522452  0.98578835    -0.79480
O2307       O  0.72585170  0.29884787  0.97411046    -0.71680
O2308       O  0.80891239  0.26796867  0.01647746    -2.32640
O2309       O  0.74479801  0.33995263  0.01261751    -2.28840
O2310       O  0.78790418  0.22400750  0.97936387    -0.73440
H2311       H  0.73347896  0.18978669  0.00963305     0.78560
H2312       H  0.82555747  0.26318965  0.02528710     0.79650
H2313       H  0.77450916  0.31508935  0.92655210     0.81870
H2314       H  0.73651266  0.36364222  0.01956599     0.79480
H2315       H  0.83720478  0.17830798  0.02979437     0.42510
H2316       H  0.84258314  0.20769161  0.97320551     0.41480
H2317       H  0.84857063  0.32207872  0.92576063     0.41160
H2318       H  0.79552746  0.38607598  0.93072885     0.39090
H2319       H  0.70800155  0.40760456  0.97839551     0.42230
H2320       H  0.68419037  0.34118464  0.02372344     0.37010
H2321       H  0.72400064  0.19405679  0.06343934     0.43130
H2322       H  0.75509464  0.14012313  0.06564189     0.39540
H2323       H  0.78017953  0.42998645  0.92843985     0.44460
H2324       H  0.67298463  0.29715140  0.04119848     0.43180
H2325       H  0.78356798  0.13232442  0.07584337     0.43320
H2326       H  0.86043756  0.24646194  0.95940536     0.43680
O2327       O  0.71220883  0.80736420  0.04779806    -0.75190
O2328       O  0.75231468  0.80758343  0.06293789    -0.54100
C2329       C  0.72847950  0.79800525  0.06746141     0.78540
O2330       O  0.77423453  0.64003935  0.00927551    -0.59790
O2331       O  0.75227053  0.64791438  0.96787857    -0.52820
C2332       C  0.76309099  0.62428943  0.98983749     0.70550
O2333       O  0.80285103  0.73485128  0.06215980    -0.74350
O2334       O  0.80145381  0.81107171  0.05690072    -0.54910
C2335       C  0.80755596  0.77214271  0.07037821     0.76550
O2336       O  0.68345426  0.72115994  0.98668657    -0.59490
O2337       O  0.70346903  0.69365468  0.95293353    -0.52610
C2338       C  0.68408414  0.69808750  0.96719557     0.73150
Zr2339     Zr  0.71245768  0.76614182  0.01122213     2.54710
O2340       O  0.69645830  0.70998114  0.04880075    -0.80060
O2341       O  0.67209205  0.80586343  0.00192607    -0.93480
Zr2342     Zr  0.78287783  0.71169374  0.02061793     2.64680
O2343       O  0.77366649  0.66133770  0.06385280    -0.98430
O2344       O  0.82545434  0.68177254  0.01827836    -0.80490
O2345       O  0.75441142  0.76389952  0.03123777    -0.83850
O2346       O  0.74049682  0.71183897  0.00063983    -2.18560
O2347       O  0.69862276  0.82185724  0.93639847    -0.67240
O2348       O  0.71278893  0.76826830  0.91525984    -0.51810
C2349       C  0.69776648  0.80195638  0.91594907     0.71530
O2350       O  0.83214914  0.84899035  0.97003355    -0.60150
O2351       O  0.81677963  0.87059259  0.00849539    -0.52130
C2352       C  0.83376279  0.87075424  0.98983187     0.73330
O2353       O  0.80652621  0.74969282  0.91866379    -0.71540
O2354       O  0.76864418  0.71458949  0.91358676    -0.50220
C2355       C  0.79173543  0.72447983  0.90693112     0.74720
O2356       O  0.74611120  0.92482280  0.96594375    -0.66870
O2357       O  0.76348759  0.91324432  0.00941977    -0.54070
C2358       C  0.75492095  0.93892053  0.98720222     0.73100
Zr2359     Zr  0.73726506  0.85572048  0.94962777     2.77540
O2360       O  0.74754544  0.89075199  0.90252261    -0.97620
O2361       O  0.70517952  0.91351901  0.93573017    -0.78440
Zr2362     Zr  0.80383920  0.79622892  0.95411567     2.70070
O2363       O  0.81430674  0.84946824  0.91247803    -0.79690
O2364       O  0.84654820  0.76475506  0.95984984    -0.98770
Zr2365     Zr  0.77443433  0.83433797  0.01757734     2.21500
Zr2366     Zr  0.74382357  0.72905039  0.95148979     2.11130
O2367       O  0.76243256  0.80065492  0.93383328    -2.47460
O2368       O  0.77888944  0.85203672  0.96864424    -0.79480
O2369       O  0.71871157  0.78490067  0.96458600    -0.71680
O2370       O  0.80171704  0.78115711  0.00322456    -2.32640
O2371       O  0.73193207  0.83887483  0.99803660    -2.28840
O2372       O  0.78588623  0.72552714  0.97150174    -0.73440
H2373       H  0.73226945  0.68332941  0.00636259     0.78560
H2374       H  0.81858260  0.78191545  0.01139027     0.79650
H2375       H  0.76300760  0.80570693  0.91393958     0.81870
H2376       H  0.72203860  0.86189472  0.00386721     0.79480
H2377       H  0.83691733  0.70283094  0.02570132     0.42510
H2378       H  0.84389706  0.73215996  0.96589368     0.41480
H2379       H  0.81256677  0.87925284  0.91754342     0.41160
H2380       H  0.73994444  0.87105813  0.89064191     0.39090
H2381       H  0.69541249  0.91335222  0.95262529     0.42230
H2382       H  0.67340315  0.83119397  0.01184609     0.37010
H2383       H  0.71188684  0.69445994  0.05772252     0.43130
H2384       H  0.75529632  0.65454265  0.06248749     0.39540
H2385       H  0.76615548  0.88730672  0.90131064     0.44460
H2386       H  0.65937486  0.78540774  0.01208001     0.43180
H2387       H  0.78238852  0.63293718  0.06292579     0.43320
H2388       H  0.85293419  0.76819227  0.94087328     0.43680
O2389       O  0.97359727  0.05621242  0.05658018    -0.75190
O2390       O  0.51418386  0.04470725  0.06939284    -0.54100
C2391       C  0.99025712  0.04112806  0.07492577     0.78540
O2392       O  0.52405603  0.89087321  0.99282286    -0.59790
O2393       O  0.49669360  0.91150347  0.95547947    -0.52820
C2394       C  0.51068713  0.88245492  0.97186897     0.70550
O2395       O  0.55346932  0.97033232  0.06358443    -0.74350
O2396       O  0.56910934  0.04054930  0.05244092    -0.54910
C2397       C  0.56587804  0.00477716  0.06995024     0.76550
O2398       O  0.93517195  0.97994968  0.99990440    -0.59490
O2399       O  0.94633235  0.96253352  0.95881671    -0.52610
C2400       C  0.93069067  0.96217819  0.97876845     0.73150
Zr2401     Zr  0.96911857  0.02031898  0.01784890     2.54710
O2402       O  0.95506287  0.96200848  0.05533529    -0.80060
O2403       O  0.92992689  0.06302098  0.01671215    -0.93480
Zr2404     Zr  0.53392875  0.95260117  0.01803108     2.64680
O2405       O  0.51953622  0.89132582  0.05352867    -0.98430
O2406       O  0.57589169  0.91951188  0.01720965    -0.80490
O2407       O  0.51153313  0.00676496  0.03543573    -0.83850
O2408       O  0.49092756  0.96529574  0.99944573    -2.18560
O2409       O  0.96778665  0.11523916  0.92309628    -0.67240
O2410       O  0.96572890  0.04533593  0.91221925    -0.51810
C2411       C  0.96023232  0.08808366  0.90801338     0.71530
O2412       O  0.58749437  0.09213163  0.97135712    -0.60150
O2413       O  0.57554541  0.11429196  0.01087811    -0.52130
C2414       C  0.59094575  0.11441810  0.99075521     0.73330
O2415       O  0.55437063  0.99963751  0.91967326    -0.71540
O2416       O  0.51469620  0.97355249  0.91153153    -0.50220
C2417       C  0.53864526  0.97886506  0.90604395     0.74720
O2418       O  0.50475891  0.17656693  0.98632413    -0.66870
O2419       O  0.52574641  0.15225879  0.02731512    -0.54070
C2420       C  0.51452176  0.18312757  0.00947240     0.73100
Zr2421     Zr  0.49496683  0.11589090  0.96128111     2.77540
O2422       O  0.51389359  0.17292344  0.92618353    -0.97620
O2423       O  0.95539813  0.15690093  0.96128524    -0.78440
Zr2424     Zr  0.55569307  0.04487576  0.95550942     2.70070
O2425       O  0.56425919  0.10206974  0.91510271    -0.79690
O2426       O  0.59710771  0.00911702  0.95625718    -0.98770
Zr2427     Zr  0.53505698  0.07487700  0.02424183     2.21500
Zr2428     Zr  0.49010454  0.99270400  0.95011112     2.11130
O2429       O  0.51365899  0.06129917  0.93871925    -2.47460
O2430       O  0.53707387  0.10093294  0.97595215    -0.79480
O2431       O  0.97038079  0.04879820  0.97021365    -0.71680
O2432       O  0.55652710  0.02007575  0.00394508    -2.32640
O2433       O  0.99194745  0.08908897  0.00861147    -2.28840
O2434       O  0.53263372  0.97830573  0.96900575    -0.73440
H2435       H  0.98158192  0.93748799  0.00358099     0.78560
H2436       H  0.57414974  0.01597950  0.00991232     0.79650
H2437       H  0.51372757  0.07173041  0.91896250     0.81870
H2438       H  0.98379801  0.11126047  0.01703015     0.79480
H2439       H  0.58599575  0.93059174  0.03176200     0.42510
H2440       H  0.59329410  0.97676947  0.95818468     0.41480
H2441       H  0.56297097  0.13078503  0.92161480     0.41160
H2442       H  0.51475639  0.15892379  0.90969290     0.39090
H2443       H  0.94380057  0.13537057  0.97243232     0.42230
H2444       H  0.93515580  0.09170951  0.02187444     0.37010
H2445       H  0.96764290  0.93764699  0.05629197     0.43130
H2446       H  0.50316575  0.88164311  0.04614483     0.39540
H2447       H  0.00052587  0.19609810  0.92133639     0.44460
H2448       H  0.92040991  0.04721553  0.03272969     0.43180
H2449       H  0.53145197  0.86651414  0.05283144     0.43320
H2450       H  0.60327732  0.01822278  0.93723077     0.43680
O2451       O  0.56777786  0.51966729  0.05684033    -0.75190
O2452       O  0.53205408  0.48076407  0.07208537    -0.54100
C2453       C  0.55332422  0.50150084  0.07609358     0.78540
O2454       O  0.00222100  0.67202111  0.98821488    -0.59790
O2455       O  0.52166026  0.67217102  0.94722530    -0.52820
C2456       C  0.51152381  0.69238650  0.96541967     0.70550
O2457       O  0.97765579  0.56059998  0.05974073    -0.74350
O2458       O  0.98515918  0.48509189  0.06914803    -0.54910
C2459       C  0.97622298  0.52064824  0.07503020     0.76550
O2460       O  0.59006425  0.58665222  0.97660246    -0.59490
O2461       O  0.57062213  0.62107442  0.93658744    -0.52610
C2462       C  0.59017951  0.61293964  0.95306982     0.73150
Zr2463     Zr  0.56372576  0.53797738  0.00794953     2.54710
O2464       O  0.59200389  0.58673053  0.02877352    -0.80060
O2465       O  0.59822819  0.48428875  0.00987297    -0.93480
Zr2466     Zr  0.99569380  0.59643599  0.01356446     2.64680
O2467       O  0.00195409  0.65392546  0.04149739    -0.98430
O2468       O  0.95136086  0.61838937  0.00435666    -0.80490
O2469       O  0.52513609  0.53966569  0.03100430    -0.83850
O2470       O  0.53569007  0.59767783  0.99015385    -2.18560
O2471       O  0.54193610  0.48081234  0.91607580    -0.67240
O2472       O  0.54158900  0.55717985  0.90234128    -0.51810
C2473       C  0.54479861  0.51628344  0.89806450     0.71530
O2474       O  0.93982883  0.47295121  0.99211729    -0.60150
O2475       O  0.96121690  0.43781932  0.03129117    -0.52130
C2476       C  0.94112982  0.44494583  0.01516873     0.73330
O2477       O  0.95848093  0.59415563  0.92681678    -0.71540
O2478       O  0.49532217  0.62578507  0.90972360    -0.50220
C2479       C  0.97086502  0.62416575  0.91009059     0.74720
O2480       O  0.52441796  0.38789629  0.99070733    -0.66870
O2481       O  0.01332745  0.39146820  0.03455241    -0.54070
C2482       C  0.51859142  0.36977796  0.01543949     0.73100
Zr2483     Zr  0.53136646  0.46171477  0.96296292     2.77540
O2484       O  0.51233980  0.40588863  0.93931897    -0.97620
O2485       O  0.57411366  0.43156401  0.96241521    -0.78440
Zr2486     Zr  0.96654543  0.52618551  0.96272655     2.70070
O2487       O  0.95490444  0.48341625  0.92726395    -0.79690
O2488       O  0.92303367  0.55330098  0.96046272    -0.98770
Zr2489     Zr  0.00455121  0.47094677  0.03033238     2.21500
Zr2490     Zr  0.52741062  0.59147234  0.94279419     2.11130
O2491       O  0.50514276  0.52309562  0.94039207    -2.47460
O2492       O  0.99242748  0.46464196  0.98440118    -0.79480
O2493       O  0.55414108  0.52972923  0.96249343    -0.71680
O2494       O  0.97528908  0.52926168  0.00985745    -2.32640
O2495       O  0.54389007  0.46762415  0.00844112    -2.28840
O2496       O  0.98821573  0.59252229  0.96652199    -0.73440
H2497       H  0.54465182  0.62519212  0.99107103     0.78560
H2498       H  0.95961820  0.52742573  0.01972385     0.79650
H2499       H  0.50075138  0.52111311  0.92156535     0.81870
H2500       H  0.55435267  0.44291130  0.01758728     0.79480
H2501       H  0.94483047  0.62093545  0.02261878     0.42510
H2502       H  0.91959951  0.55769263  0.97936411     0.41480
H2503       H  0.95402004  0.45202425  0.93731684     0.41160
H2504       H  0.50017671  0.42280900  0.92560910     0.39090
H2505       H  0.58468107  0.45759365  0.95435305     0.42230
H2506       H  0.60261228  0.47508343  0.02978648     0.37010
H2507       H  0.60855770  0.57090699  0.03142045     0.43130
H2508       H  0.52059356  0.65759412  0.04333813     0.39540
H2509       H  0.52617103  0.39667652  0.92839573     0.44460
H2510       H  0.61293082  0.50252145  0.00215457     0.43180
H2511       H  0.99619031  0.64094183  0.06024551     0.43320
H2512       H  0.91223837  0.52780268  0.95746131     0.43680
O2513       O  0.84666987  0.14366365  0.80953281    -0.75190
O2514       O  0.84689425  0.21969466  0.80296822    -0.54100
C2515       C  0.83992891  0.18156377  0.81620891     0.78540
O2516       O  0.97219006  0.14244002  0.74989089    -0.59790
O2517       O  0.95587037  0.10900472  0.71570208    -0.52820
C2518       C  0.97371031  0.11563889  0.73269349     0.70550
O2519       O  0.93455015  0.23268376  0.80002386    -0.74350
O2520       O  0.89481191  0.22544363  0.81321936    -0.54910
C2521       C  0.91893689  0.22095437  0.81908218     0.76550
O2522       O  0.88391320  0.04831428  0.75760514    -0.59490
O2523       O  0.90927119  0.06232248  0.71992714    -0.52610
C2524       C  0.89702988  0.03603818  0.73866919     0.73150
Zr2525     Zr  0.87262471  0.11742438  0.77228079     2.54710
O2526       O  0.88828265  0.06944497  0.81459257    -0.80060
O2527       O  0.83293017  0.07575871  0.77226840    -0.93480
Zr2528     Zr  0.93904559  0.18536878  0.76715444     2.64680
O2529       O  0.95279659  0.12789522  0.80605791    -0.98430
O2530       O  0.97838953  0.22842328  0.76424801    -0.80490
O2531       O  0.89707495  0.17516762  0.78454470    -0.83850
O2532       O  0.91531137  0.12565466  0.75517937    -2.18560
O2533       O  0.85347498  0.14040940  0.66763012    -0.67240
O2534       O  0.89486476  0.12048311  0.66511408    -0.51810
C2535       C  0.87134430  0.12006137  0.65712679     0.71530
O2536       O  0.89626558  0.33534401  0.71497380    -0.60150
O2537       O  0.88028091  0.32080532  0.75796366    -0.52130
C2538       C  0.88739847  0.34775385  0.73614296     0.73330
O2539       O  0.95021330  0.25650008  0.68178346    -0.71540
O2540       O  0.95008906  0.18278753  0.67899916    -0.50220
C2541       C  0.96022327  0.22270272  0.67459424     0.74720
O2542       O  0.81759961  0.24018713  0.71468561    -0.66870
O2543       O  0.83113661  0.26856228  0.75250644    -0.54070
C2544       C  0.81459097  0.26354447  0.73352145     0.73100
Zr2545     Zr  0.84976313  0.19280592  0.70082023     2.77540
O2546       O  0.83793677  0.24278680  0.65768129    -0.97620
O2547       O  0.80977148  0.15206210  0.70095573    -0.78440
Zr2548     Zr  0.91042785  0.26823197  0.70084504     2.70070
O2549       O  0.89479022  0.29713335  0.65394465    -0.79690
O2550       O  0.93576118  0.33649989  0.69437312    -0.98770
Zr2551     Zr  0.87392816  0.24085707  0.76574323     2.21500
Zr2552     Zr  0.91460539  0.14234000  0.70584525     2.11130
O2553       O  0.89132497  0.20695698  0.68391990    -2.47460
O2554       O  0.86904572  0.25503881  0.71655679    -0.79480
O2555       O  0.87245010  0.12908044  0.72278221    -0.71680
O2556       O  0.91600462  0.25319798  0.74944131    -2.32640
O2557       O  0.85067442  0.18176270  0.75036140    -2.28840
O2558       O  0.93453384  0.20379506  0.71959000    -0.73440
H2559       H  0.92469547  0.09840833  0.76196048     0.78560
H2560       H  0.92394933  0.27874083  0.75521772     0.79650
H2561       H  0.89174598  0.21080019  0.66404882     0.81870
H2562       H  0.83353025  0.17992699  0.75700111     0.79480
H2563       H  0.97353071  0.25835404  0.75369290     0.42510
H2564       H  0.95185958  0.32825087  0.70495636     0.41480
H2565       H  0.87957452  0.31489304  0.65633095     0.41160
H2566       H  0.84653957  0.23041143  0.64319452     0.39090
H2567       H  0.81155644  0.12705622  0.71697925     0.42230
H2568       H  0.81940656  0.09830991  0.77213967     0.37010
H2569       H  0.89342492  0.09042022  0.82681944     0.43130
H2570       H  0.93678549  0.11421599  0.81374699     0.39540
H2571       H  0.81963993  0.23667863  0.65476571     0.44460
H2572       H  0.83247358  0.05688004  0.79096307     0.43180
H2573       H  0.96080699  0.10407648  0.79808744     0.43320
H2574       H  0.94034282  0.34232100  0.67469551     0.43680
O2575       O  0.84913012  0.64107641  0.80892730    -0.75190
O2576       O  0.84846563  0.71724716  0.80301528    -0.54100
C2577       C  0.84155363  0.67832157  0.81523334     0.78540
O2578       O  0.97216524  0.63950406  0.74750174    -0.59790
O2579       O  0.95638879  0.61326240  0.71005243    -0.52820
C2580       C  0.97399465  0.61731608  0.72792692     0.70550
O2581       O  0.94096479  0.73338558  0.79780606    -0.74350
O2582       O  0.90020169  0.73688173  0.81024256    -0.54910
C2583       C  0.92434878  0.73362744  0.81611582     0.76550
O2584       O  0.88210234  0.55008962  0.75573858    -0.59490
O2585       O  0.90711807  0.56049286  0.71787209    -0.52610
C2586       C  0.89430196  0.53592669  0.73706372     0.73150
Zr2587     Zr  0.87569160  0.61779234  0.77264864     2.54710
O2588       O  0.89696794  0.57500871  0.81365518    -0.80060
O2589       O  0.83825170  0.56975820  0.77925095    -0.93480
Zr2590     Zr  0.94074097  0.68533885  0.76444047     2.64680
O2591       O  0.95457294  0.63538819  0.80685284    -0.98430
O2592       O  0.98127183  0.72485631  0.76098321    -0.80490
O2593       O  0.90002287  0.67604180  0.78479950    -0.83850
O2594       O  0.91721961  0.62497343  0.75297035    -2.18560
O2595       O  0.84841738  0.62950728  0.67570265    -0.67240
O2596       O  0.88895665  0.60817175  0.66997928    -0.51810
C2597       C  0.86479894  0.60539810  0.66567591     0.71530
O2598       O  0.90325572  0.83508707  0.71802643    -0.60150
O2599       O  0.88427968  0.81982330  0.75957089    -0.52130
C2600       C  0.89434886  0.84676129  0.73962981     0.73330
O2601       O  0.93113290  0.75507504  0.66050672    -0.71540
O2602       O  0.93474786  0.68017298  0.66079682    -0.50220
C2603       C  0.93825864  0.72221709  0.65010897     0.74720
O2604       O  0.82115152  0.74804472  0.71471031    -0.66870
O2605       O  0.83546013  0.77613227  0.75214821    -0.54070
C2606       C  0.81922801  0.77369462  0.73249340     0.73100
Zr2607     Zr  0.84870425  0.69129927  0.70319029     2.77540
O2608       O  0.83522999  0.73153999  0.65757849    -0.97620
O2609       O  0.80692064  0.65684569  0.71041675    -0.78440
Zr2610     Zr  0.91047615  0.76729852  0.70003742     2.70070
O2611       O  0.88856666  0.81836148  0.66283951    -0.79690
O2612       O  0.94961346  0.81117103  0.69542715    -0.98770
Zr2613     Zr  0.87621370  0.74098656  0.76591332     2.21500
Zr2614     Zr  0.91341406  0.64098783  0.70340871     2.11130
O2615       O  0.88931905  0.70610684  0.68467479    -2.47460
O2616       O  0.86966280  0.75379006  0.71710473    -0.79480
O2617       O  0.87254145  0.62863421  0.72344883    -0.71680
O2618       O  0.91767946  0.75237492  0.74802347    -2.32640
O2619       O  0.85210737  0.68129344  0.75235799    -2.28840
O2620       O  0.93590056  0.70256315  0.71586634    -0.73440
H2621       H  0.92664972  0.59761185  0.75928042     0.78560
H2622       H  0.92642253  0.77724632  0.75370447     0.79650
H2623       H  0.88791325  0.71057008  0.66480101     0.81870
H2624       H  0.83515069  0.67966153  0.75947295     0.79480
H2625       H  0.97730192  0.75459371  0.74957745     0.42510
H2626       H  0.96330001  0.78931220  0.69453145     0.41480
H2627       H  0.87272606  0.82658778  0.67105641     0.41160
H2628       H  0.84452223  0.76036301  0.65528612     0.39090
H2629       H  0.81033955  0.62741624  0.72246432     0.42230
H2630       H  0.82360893  0.59058994  0.77584957     0.37010
H2631       H  0.89928280  0.59653249  0.82626128     0.43130
H2632       H  0.95809896  0.60649469  0.80127213     0.39540
H2633       H  0.84314748  0.71524518  0.64443130     0.44460
H2634       H  0.83820996  0.55753019  0.79933822     0.43180
H2635       H  0.97153594  0.64685545  0.81134948     0.43320
H2636       H  0.94846140  0.82978736  0.67664260     0.43680
O2637       O  0.59825042  0.40801657  0.80516847    -0.75190
O2638       O  0.60110106  0.48422600  0.79654024    -0.54100
C2639       C  0.59433390  0.44781461  0.81159325     0.78540
O2640       O  0.71991836  0.38707281  0.74248112    -0.59790
O2641       O  0.70333728  0.35598477  0.70749767    -0.52820
C2642       C  0.72147243  0.36252398  0.72427931     0.70550
O2643       O  0.68921349  0.45935452  0.80144537    -0.74350
O2644       O  0.64738016  0.45147530  0.80557453    -0.54910
C2645       C  0.67044533  0.44624903  0.81625230     0.76550
O2646       O  0.63165896  0.29998973  0.75715242    -0.59490
O2647       O  0.65512463  0.30869335  0.71793291    -0.52610
C2648       C  0.64387002  0.28492190  0.73861627     0.73150
Zr2649     Zr  0.61807037  0.37200834  0.76592571     2.54710
O2650       O  0.61359883  0.30941452  0.80442249    -0.80060
O2651       O  0.57503481  0.35163994  0.75346775    -0.93480
Zr2652     Zr  0.68927857  0.43265074  0.75947108     2.64680
O2653       O  0.71609840  0.38078179  0.79202421    -0.98430
O2654       O  0.72337291  0.48796431  0.75252672    -0.80490
O2655       O  0.64704645  0.42404172  0.77641614    -0.83850
O2656       O  0.66179521  0.37540594  0.74952211    -2.18560
O2657       O  0.59808083  0.38840638  0.66347213    -0.67240
O2658       O  0.63795276  0.35960715  0.66371345    -0.51810
C2659       C  0.61465580  0.36266530  0.65498727     0.71530
O2660       O  0.65639822  0.58301366  0.71369422    -0.60150
O2661       O  0.63800261  0.56870553  0.75539490    -0.52130
C2662       C  0.64779409  0.59559141  0.73524631     0.73330
O2663       O  0.70003014  0.48324222  0.67856029    -0.71540
O2664       O  0.68598069  0.42581782  0.65969997    -0.50220
C2665       C  0.69934547  0.46195235  0.65872056     0.74720
O2666       O  0.56927203  0.49958073  0.70796935    -0.66870
O2667       O  0.58465437  0.52308849  0.74682928    -0.54070
C2668       C  0.56767355  0.52179801  0.72761718     0.73100
Zr2669     Zr  0.59835561  0.44642223  0.69419804     2.77540
O2670       O  0.58933792  0.49523372  0.64984257    -0.97620
O2671       O  0.55563051  0.41484490  0.69489211    -0.78440
Zr2672     Zr  0.66294517  0.51554237  0.69426437     2.70070
O2673       O  0.64343638  0.54801182  0.64964574    -0.79690
O2674       O  0.69124611  0.57790218  0.67717117    -0.98770
Zr2675     Zr  0.62689110  0.49131637  0.75913017     2.21500
Zr2676     Zr  0.66112657  0.38792551  0.69990649     2.11130
O2677       O  0.64036071  0.45590731  0.67829657    -2.47460
O2678       O  0.62131720  0.50561815  0.71005951    -0.79480
O2679       O  0.61844378  0.38012119  0.71650727    -0.71680
O2680       O  0.66890694  0.50251725  0.74297543    -2.32640
O2681       O  0.59916350  0.43798971  0.74360238    -2.28840
O2682       O  0.68539936  0.44793112  0.71164375    -0.73440
H2683       H  0.67059156  0.34781762  0.75699547     0.78560
H2684       H  0.67820805  0.52574809  0.74986302     0.79650
H2685       H  0.64044019  0.45950990  0.65841815     0.81870
H2686       H  0.58226307  0.43871596  0.75058710     0.79480
H2687       H  0.72429626  0.49737410  0.73223258     0.42510
H2688       H  0.70846566  0.56755468  0.68409217     0.41480
H2689       H  0.63449623  0.57495349  0.65297958     0.41160
H2690       H  0.59492003  0.47807878  0.63592224     0.39090
H2691       H  0.55819494  0.38201065  0.69912617     0.42230
H2692       H  0.56483965  0.35425758  0.76965659     0.37010
H2693       H  0.59563392  0.31057354  0.80975889     0.43130
H2694       H  0.70763257  0.35122327  0.79414733     0.39540
H2695       H  0.57053206  0.49557244  0.64796390     0.44460
H2696       H  0.57588984  0.31905556  0.75374198     0.43180
H2697       H  0.71507598  0.38926686  0.81032291     0.43320
H2698       H  0.69168964  0.57987444  0.65697304     0.43680
O2699       O  0.60342730  0.88838563  0.81011476    -0.75190
O2700       O  0.59756255  0.96366579  0.80043715    -0.54100
C2701       C  0.59432058  0.92562943  0.81587965     0.78540
O2702       O  0.72212790  0.88846846  0.74689987    -0.59790
O2703       O  0.70846082  0.87103811  0.70625546    -0.52820
C2704       C  0.72493144  0.86984444  0.72597462     0.70550
O2705       O  0.69018233  0.94899679  0.80758280    -0.74350
O2706       O  0.64776537  0.94826076  0.81240912    -0.54910
C2707       C  0.67069901  0.93582503  0.82171623     0.76550
O2708       O  0.63763903  0.79929729  0.75243970    -0.59490
O2709       O  0.66038277  0.81590427  0.71309531    -0.52610
C2710       C  0.64949174  0.78798141  0.73236346     0.73150
Zr2711     Zr  0.62754297  0.86663753  0.76935636     2.54710
O2712       O  0.64611489  0.81903037  0.81029534    -0.80060
O2713       O  0.58835964  0.82329504  0.77028906    -0.93480
Zr2714     Zr  0.69386163  0.94357145  0.75934892     2.64680
O2715       O  0.73677249  0.95278370  0.77832078    -0.98430
O2716       O  0.71567860  0.01103211  0.73664649    -0.80490
O2717       O  0.65271721  0.92587534  0.77682402    -0.83850
O2718       O  0.66994774  0.87999754  0.74980937    -2.18560
O2719       O  0.60439035  0.89508667  0.66668182    -0.67240
O2720       O  0.64489585  0.87198333  0.66300104    -0.51810
C2721       C  0.62144285  0.87351944  0.65567274     0.71530
O2722       O  0.64997609  0.08593157  0.72255323    -0.60150
O2723       O  0.63552548  0.06585283  0.76624643    -0.52130
C2724       C  0.64266348  0.09507526  0.74552053     0.73330
O2725       O  0.68584401  0.01228082  0.66423738    -0.71540
O2726       O  0.68720663  0.93907374  0.65986220    -0.50220
C2727       C  0.69255938  0.98114108  0.65199128     0.74720
O2728       O  0.56948403  0.99481787  0.71663045    -0.66870
O2729       O  0.58544405  0.02186888  0.75390545    -0.54070
C2730       C  0.56818883  0.01927202  0.73520221     0.73100
Zr2731     Zr  0.59944271  0.94398229  0.70175564     2.77540
O2732       O  0.58210819  0.98934361  0.65925474    -0.97620
O2733       O  0.56058188  0.89966268  0.70744992    -0.78440
Zr2734     Zr  0.65914463  0.02378196  0.70001016     2.70070
O2735       O  0.63313326  0.06540191  0.66223096    -0.79690
O2736       O  0.68941117  0.08537579  0.68914551    -0.98770
Zr2737     Zr  0.62702150  0.98789826  0.76655297     2.21500
Zr2738     Zr  0.66524965  0.89753953  0.70076748     2.11130
O2739       O  0.63985058  0.96218522  0.68358611    -2.47460
O2740       O  0.61909500  0.00529530  0.71790653    -0.79480
O2741       O  0.62409761  0.88051091  0.71993903    -0.71680
O2742       O  0.66785576  0.00763508  0.74828991    -2.32640
O2743       O  0.60294453  0.93001002  0.75099767    -2.28840
O2744       O  0.68675470  0.96095188  0.71181568    -0.73440
H2745       H  0.67952622  0.85254613  0.75486851     0.78560
H2746       H  0.67592668  0.03145470  0.75578953     0.79650
H2747       H  0.63877192  0.96807578  0.66364570     0.81870
H2748       H  0.58612155  0.92711171  0.75852641     0.79480
H2749       H  0.72950869  0.00025391  0.72634793     0.42510
H2750       H  0.70636862  0.07131956  0.68936347     0.41480
H2751       H  0.62329810  0.08658528  0.67077678     0.41160
H2752       H  0.58523722  0.02065894  0.66135680     0.39090
H2753       H  0.56655538  0.86823676  0.71174827     0.42230
H2754       H  0.57455840  0.84535411  0.77009842     0.37010
H2755       H  0.63140515  0.80793081  0.82175972     0.43130
H2756       H  0.74564179  0.92362794  0.78133291     0.39540
H2757       H  0.59382292  0.98463287  0.64470623     0.44460
H2758       H  0.58824201  0.80482453  0.78911986     0.43180
H2759       H  0.73534881  0.96078114  0.79672383     0.43320
H2760       H  0.68583229  0.09872769  0.66949912     0.43680
O2761       O  0.74776581  0.05931963  0.41510204    -0.75190
O2762       O  0.72916617  0.99291364  0.42477671    -0.54100
C2763       C  0.72882434  0.03435712  0.41228669     0.78540
O2764       O  0.85183115  0.08109359  0.46994270    -0.59790
O2765       O  0.83858213  0.10955931  0.50679852    -0.52820
C2766       C  0.85454667  0.10599356  0.48801667     0.70550
O2767       O  0.82237468  0.97608151  0.42466943    -0.74350
O2768       O  0.78489658  0.93844876  0.42440267    -0.54910
C2769       C  0.80783039  0.94675552  0.41619902     0.76550
O2770       O  0.76201857  0.16104039  0.46928602    -0.59490
O2771       O  0.78568978  0.15134202  0.50923910    -0.52610
C2772       C  0.77292929  0.17558941  0.48950334     0.73150
Zr2773     Zr  0.75452033  0.08815339  0.45662766     2.54710
O2774       O  0.75579369  0.14979623  0.41716747    -0.80060
O2775       O  0.71013375  0.10485953  0.46437441    -0.93480
Zr2776     Zr  0.82150105  0.02953306  0.45664036     2.64680
O2777       O  0.82713055  0.07951873  0.41243174    -0.98430
O2778       O  0.86471812  0.00114653  0.45726825    -0.80490
O2779       O  0.77873720  0.03174178  0.44112006    -0.83850
O2780       O  0.79779867  0.08826705  0.47027288    -2.18560
O2781       O  0.74048840  0.07041766  0.53898670    -0.67240
O2782       O  0.77566736  0.07823079  0.56214027    -0.51810
C2783       C  0.75171997  0.07056247  0.56196144     0.71530
O2784       O  0.79849592  0.87736803  0.51669421    -0.60150
O2785       O  0.77165509  0.88260072  0.47855944    -0.52130
C2786       C  0.78556761  0.86062380  0.49846775     0.73330
O2787       O  0.83019259  0.98526164  0.56657765    -0.71540
O2788       O  0.82520794  0.06118226  0.55845830    -0.50220
C2789       C  0.83381071  0.02496631  0.57293228     0.74720
O2790       O  0.70462531  0.95982660  0.50398746    -0.66870
O2791       O  0.72070158  0.92442535  0.47152426    -0.54070
C2792       C  0.70276320  0.93290090  0.48694997     0.73100
Zr2793     Zr  0.73778352  0.00030836  0.52385878     2.77540
O2794       O  0.73648941  0.94013289  0.56435546    -0.97620
O2795       O  0.69707351  0.01198598  0.54374733    -0.78440
Zr2796     Zr  0.80779720  0.95070528  0.52832569     2.70070
O2797       O  0.80086152  0.89912555  0.57170865    -0.79690
O2798       O  0.85064097  0.92232896  0.52546779    -0.98770
Zr2799     Zr  0.76146101  0.96090684  0.46155413     2.21500
Zr2800     Zr  0.79779078  0.07439916  0.51938812     2.11130
O2801       O  0.78065273  0.00336768  0.54065541    -2.47460
O2802       O  0.76449084  0.94650470  0.51117698    -0.79480
O2803       O  0.75434995  0.07272464  0.50501888    -0.71680
O2804       O  0.80487907  0.96062348  0.47883302    -2.32640
O2805       O  0.73593528  0.01735339  0.47511125    -2.28840
O2806       O  0.82435010  0.01958722  0.50584018    -0.73440
H2807       H  0.80518616  0.11708536  0.46293761     0.78560
H2808       H  0.81432375  0.93666876  0.47349138     0.79650
H2809       H  0.78161092  0.99902876  0.56043395     0.81870
H2810       H  0.71863672  0.01738604  0.46809136     0.79480
H2811       H  0.86666483  0.98052079  0.47531520     0.42510
H2812       H  0.86196512  0.94615170  0.53005359     0.41480
H2813       H  0.78469287  0.88367118  0.56868426     0.41160
H2814       H  0.75246400  0.94177791  0.57513503     0.39090
H2815       H  0.68695956  0.02971402  0.52827173     0.42230
H2816       H  0.69921660  0.08640653  0.45430214     0.37010
H2817       H  0.77317258  0.14860455  0.41010193     0.43130
H2818       H  0.82613341  0.11001486  0.41661238     0.39540
H2819       H  0.72282125  0.94815513  0.57588931     0.44460
H2820       H  0.70733871  0.13619284  0.45480156     0.43180
H2821       H  0.84523248  0.07591339  0.40826579     0.43320
H2822       H  0.85242561  0.89748768  0.54159322     0.43680
O2823       O  0.73928116  0.58062623  0.42478657    -0.75190
O2824       O  0.73363307  0.50609809  0.42521270    -0.54100
C2825       C  0.73046938  0.54828367  0.41444818     0.78540
O2826       O  0.85826159  0.55234475  0.48359455    -0.59790
O2827       O  0.84522791  0.58704667  0.51804670    -0.52820
C2828       C  0.86179033  0.57791644  0.50115150     0.70550
O2829       O  0.81958785  0.46036513  0.43387897    -0.74350
O2830       O  0.77868297  0.43566861  0.43236909    -0.54910
C2831       C  0.80181178  0.43719455  0.42441788     0.76550
O2832       O  0.77353472  0.66084953  0.48029830    -0.59490
O2833       O  0.79666647  0.64465955  0.52066670    -0.52610
C2834       C  0.78531585  0.67184434  0.50116067     0.73150
Zr2835     Zr  0.76328528  0.59239970  0.46374503     2.54710
O2836       O  0.78353141  0.64202429  0.42589372    -0.80060
O2837       O  0.72513956  0.63858978  0.45977423    -0.93480
Zr2838     Zr  0.82339594  0.51255857  0.46714202     2.64680
O2839       O  0.83676072  0.56045537  0.42460325    -0.98430
O2840       O  0.86086152  0.46526423  0.46960407    -0.80490
O2841       O  0.78202947  0.53025671  0.44843577    -0.83850
O2842       O  0.80533685  0.57777722  0.47992451    -2.18560
O2843       O  0.74393105  0.57584299  0.54962555    -0.67240
O2844       O  0.78062476  0.57142251  0.57193661    -0.51810
C2845       C  0.75626500  0.56930802  0.57246520     0.71530
O2846       O  0.78586685  0.37146420  0.52157332    -0.60150
O2847       O  0.76074392  0.38697780  0.48219130    -0.52130
C2848       C  0.77245543  0.35995138  0.50171582     0.73330
O2849       O  0.82114985  0.46760890  0.57865916    -0.71540
O2850       O  0.82710859  0.54330456  0.56852921    -0.50220
C2851       C  0.82954158  0.50559911  0.58459651     0.74720
O2852       O  0.70136524  0.47065787  0.51095802    -0.66870
O2853       O  0.71520357  0.43801933  0.47616531    -0.54070
C2854       C  0.69847264  0.44520466  0.49321231     0.73100
Zr2855     Zr  0.73534212  0.51214047  0.52857247     2.77540
O2856       O  0.72637809  0.46195161  0.57181498    -0.97620
O2857       O  0.69364736  0.54175809  0.53528370    -0.78440
Zr2858     Zr  0.79949977  0.44012909  0.53714870     2.70070
O2859       O  0.78569949  0.38827770  0.57786614    -0.79690
O2860       O  0.84022534  0.40188103  0.53899596    -0.98770
Zr2861     Zr  0.75752510  0.46684155  0.46754480     2.21500
Zr2862     Zr  0.80166901  0.56482670  0.52880306     2.11130
O2863       O  0.77723152  0.50002047  0.54763701    -2.47460
O2864       O  0.75700970  0.45094760  0.51710898    -0.79480
O2865       O  0.75910224  0.57829266  0.51175447    -0.71680
O2866       O  0.79940819  0.45105063  0.48763682    -2.32640
O2867       O  0.73701969  0.52917365  0.47999287    -2.28840
O2868       O  0.82326209  0.50272284  0.51653024    -0.73440
H2869       H  0.81558683  0.60394871  0.47346195     0.78560
H2870       H  0.80653073  0.42481159  0.48241178     0.79650
H2871       H  0.77662198  0.49381693  0.56744397     0.81870
H2872       H  0.72005133  0.53351619  0.47191998     0.79480
H2873       H  0.86076342  0.44665856  0.48838716     0.42510
H2874       H  0.85286958  0.42390497  0.54342644     0.41480
H2875       H  0.76721980  0.38461761  0.57455258     0.41160
H2876       H  0.70801781  0.46610132  0.57450205     0.39090
H2877       H  0.69127036  0.56705238  0.51951467     0.42230
H2878       H  0.71071986  0.61752922  0.45962459     0.37010
H2879       H  0.79550902  0.62257438  0.41850126     0.43130
H2880       H  0.84182964  0.58898896  0.43008278     0.39540
H2881       H  0.72750353  0.43158122  0.56748612     0.44460
H2882       H  0.72521689  0.65656056  0.44079834     0.43180
H2883       H  0.85296931  0.54714586  0.42035630     0.43320
H2884       H  0.83967751  0.37858297  0.55598405     0.43680
O2885       O  0.97990171  0.33779002  0.42029768    -0.75190
O2886       O  0.98047031  0.26463489  0.41539453    -0.54100
C2887       C  0.97249520  0.30572147  0.40889299     0.78540
O2888       O  0.60441069  0.32378986  0.47572541    -0.59790
O2889       O  0.58856280  0.35026381  0.51233966    -0.52820
C2890       C  0.60617810  0.34574880  0.49545122     0.70550
O2891       O  0.57240753  0.23099187  0.42145096    -0.74350
O2892       O  0.53238857  0.20380791  0.41690170    -0.54910
C2893       C  0.55609647  0.20625457  0.41099786     0.76550
O2894       O  0.51869803  0.41788904  0.47293497    -0.59490
O2895       O  0.53843009  0.40028268  0.51497442    -0.52610
C2896       C  0.52947481  0.42858797  0.49432324     0.73150
Zr2897     Zr  0.50828315  0.35091737  0.45548698     2.54710
O2898       O  0.52490993  0.39944836  0.41478419    -0.80060
O2899       O  0.97117196  0.39892595  0.45434654    -0.93480
Zr2900     Zr  0.57209724  0.28432411  0.45419965     2.64680
O2901       O  0.57850360  0.34175463  0.41332854    -0.98430
O2902       O  0.61481079  0.25758604  0.44907369    -0.80490
O2903       O  0.52997240  0.29559201  0.43632813    -0.83850
O2904       O  0.55039124  0.34168721  0.47164356    -2.18560
O2905       O  0.98489498  0.28277858  0.55913817    -0.67240
O2906       O  0.52488512  0.30699018  0.56677593    -0.51810
C2907       C  0.00330663  0.28872772  0.57527083     0.71530
O2908       O  0.53938926  0.13093142  0.50497427    -0.60150
O2909       O  0.51361183  0.14668531  0.46613644    -0.52130
C2910       C  0.52539524  0.11943128  0.48537254     0.73330
O2911       O  0.57723037  0.22743327  0.56260103    -0.71540
O2912       O  0.57221426  0.30295842  0.55890889    -0.50220
C2913       C  0.58102441  0.26559675  0.57122159     0.74720
O2914       O  0.95024531  0.22713395  0.49353554    -0.66870
O2915       O  0.96737696  0.19277145  0.46127149    -0.54070
C2916       C  0.94901658  0.20034064  0.47643981     0.73100
Zr2917     Zr  0.98555528  0.25526426  0.51700932     2.77540
O2918       O  0.97746185  0.17419517  0.52951837    -0.97620
O2919       O  0.94547169  0.27684811  0.53429497    -0.78440
Zr2920     Zr  0.55478032  0.19871989  0.52128611     2.70070
O2921       O  0.55091373  0.13943093  0.56183483    -0.79690
O2922       O  0.59682194  0.17100453  0.51371240    -0.98770
Zr2923     Zr  0.50925995  0.22661058  0.45357998     2.21500
Zr2924     Zr  0.54571664  0.32099313  0.52038881     2.11130
O2925       O  0.52793582  0.24934236  0.53546219    -2.47460
O2926       O  0.51177554  0.20306740  0.50267497    -0.79480
O2927       O  0.00310776  0.32861095  0.50348060    -0.71680
O2928       O  0.55236441  0.21604593  0.47196514    -2.32640
O2929       O  0.98611980  0.28303382  0.46960380    -2.28840
O2930       O  0.57229564  0.26866838  0.50361984    -0.73440
H2931       H  0.55936192  0.36977026  0.46677737     0.78560
H2932       H  0.56046699  0.19142773  0.46588067     0.79650
H2933       H  0.52959490  0.23940503  0.55495344     0.81870
H2934       H  0.96884345  0.28640668  0.46245983     0.79480
H2935       H  0.61621924  0.22954498  0.46301771     0.42510
H2936       H  0.60871485  0.19391528  0.51847433     0.41480
H2937       H  0.53484351  0.12372272  0.55876933     0.41160
H2938       H  0.99000026  0.15874220  0.54325070     0.39090
H2939       H  0.93951036  0.30265036  0.52019866     0.42230
H2940       H  0.95640138  0.37830072  0.45629866     0.37010
H2941       H  0.52951402  0.37904372  0.40231359     0.43130
H2942       H  0.58676285  0.36676647  0.42045145     0.39540
H2943       H  0.96055652  0.16891280  0.53790470     0.44460
H2944       H  0.96976110  0.41577047  0.43510113     0.43180
H2945       H  0.59205148  0.32955564  0.40334266     0.43320
H2946       H  0.59940895  0.14472304  0.52879447     0.43680
O2947       O  0.96887034  0.81388243  0.42698936    -0.75190
O2948       O  0.98536516  0.75081125  0.41622414    -0.54100
C2949       C  0.97145410  0.78674896  0.41065298     0.78540
O2950       O  0.60025810  0.83069723  0.46781905    -0.59790
O2951       O  0.58586332  0.86319637  0.50264083    -0.52820
C2952       C  0.60286182  0.85627456  0.48557122     0.70550
O2953       O  0.56815563  0.72671230  0.42146397    -0.74350
O2954       O  0.53127959  0.68698718  0.42444917    -0.54910
C2955       C  0.55357736  0.69558382  0.41480329     0.76550
O2956       O  0.50568058  0.91302006  0.47063015    -0.59490
O2957       O  0.53297594  0.90610623  0.50768673    -0.52610
C2958       C  0.51805193  0.92896084  0.48955916     0.73150
Zr2959     Zr  0.50090182  0.84190515  0.45426152     2.54710
O2960       O  0.51598029  0.88651349  0.41158807    -0.80060
O2961       O  0.96336577  0.88989952  0.44764273    -0.93480
Zr2962     Zr  0.56827215  0.78384547  0.45193619     2.64680
O2963       O  0.57396609  0.83508868  0.40822348    -0.98430
O2964       O  0.61143227  0.75686777  0.44935291    -0.80490
O2965       O  0.52508399  0.78656701  0.43741668    -0.83850
O2966       O  0.54441400  0.84218255  0.46627687    -2.18560
O2967       O  0.98557123  0.82007375  0.54019261    -0.67240
O2968       O  0.52256345  0.82320349  0.56013624    -0.51810
C2969       C  0.49866281  0.81604692  0.56228567     0.71530
O2970       O  0.54718745  0.63328439  0.51563407    -0.60150
O2971       O  0.51987248  0.63856221  0.47802229    -0.52130
C2972       C  0.53383799  0.61638784  0.49780579     0.73330
O2973       O  0.57523458  0.74815131  0.56382076    -0.71540
O2974       O  0.58013690  0.82132544  0.54552529    -0.50220
C2975       C  0.58226020  0.78919747  0.56565361     0.74720
O2976       O  0.95485573  0.70578478  0.50581130    -0.66870
O2977       O  0.96854647  0.67935333  0.46861844    -0.54070
C2978       C  0.95214053  0.68252541  0.48694715     0.73100
Zr2979     Zr  0.98578975  0.75381601  0.52181939     2.77540
O2980       O  0.98200843  0.69659046  0.56332899    -0.97620
O2981       O  0.94271110  0.76847465  0.53428917    -0.78440
Zr2982     Zr  0.55689691  0.70751216  0.52546732     2.70070
O2983       O  0.55491816  0.65455527  0.56904898    -0.79690
O2984       O  0.60082633  0.68535639  0.52138912    -0.98770
Zr2985     Zr  0.50926214  0.71583137  0.45963875     2.21500
Zr2986     Zr  0.54465593  0.82916382  0.51548051     2.11130
O2987       O  0.52866293  0.75752810  0.53812900    -2.47460
O2988       O  0.51340675  0.70166569  0.50910675    -0.79480
O2989       O  0.50083153  0.82724206  0.50252858    -0.71680
O2990       O  0.55291099  0.71541568  0.47593700    -2.32640
O2991       O  0.98329882  0.77040902  0.47373337    -2.28840
O2992       O  0.57147681  0.77575163  0.50102578    -0.73440
H2993       H  0.55165505  0.87113042  0.45892882     0.78560
H2994       H  0.56224117  0.69116318  0.47080341     0.79650
H2995       H  0.52911823  0.75004741  0.55791675     0.81870
H2996       H  0.96566597  0.76779904  0.46849937     0.79480
H2997       H  0.61393864  0.73409593  0.46643872     0.42510
H2998       H  0.61109460  0.70960654  0.52709349     0.41480
H2999       H  0.53650515  0.64931299  0.57194508     0.41160
H3000       H  0.99799810  0.69752823  0.57411512     0.39090
H3001       H  0.93731440  0.79523807  0.52063386     0.42230
H3002       H  0.94899260  0.87007900  0.45455399     0.37010
H3003       H  0.52688480  0.86608280  0.40365867     0.43130
H3004       H  0.57940091  0.86359954  0.41349328     0.39540
H3005       H  0.96865949  0.70747673  0.57412106     0.44460
H3006       H  0.96033490  0.89786599  0.42740102     0.43180
H3007       H  0.58935868  0.82397674  0.40057788     0.43320
H3008       H  0.60346760  0.65928870  0.53660569     0.43680
C3009       C  0.53086251  0.48992637  0.52071551    -0.05680
C3010       C  0.53190008  0.47674340  0.49498798     0.00250
C3011       C  0.53600907  0.50950612  0.47078374    -0.08320
C3012       C  0.53735807  0.55446383  0.47323963    -0.05700
C3013       C  0.53513113  0.56780378  0.49870353     0.00230
C3014       C  0.53257806  0.53514192  0.52309633    -0.08230
C3015       C  0.53124571  0.54765478  0.55134735     0.62140
H3016       H  0.52833090  0.46442592  0.53900714     0.12840
H3017       H  0.53980531  0.58006669  0.45494971     0.12850
C3018       C  0.53919614  0.49794828  0.44236071     0.62380
F3019       F  0.52629113  0.51088485  0.57179501    -0.22790
F3020       F  0.51208535  0.57863081  0.55128996    -0.20120
F3021       F  0.55430622  0.56557617  0.55794829    -0.19790
F3022       F  0.01608565  0.48450445  0.43255745    -0.19850
F3023       F  0.55698997  0.46418747  0.44385312    -0.20170
F3024       F  0.54755296  0.53428369  0.42330763    -0.22840
C3025       C  0.52011951  0.04243180  0.51127719    -0.05680
C3026       C  0.52177733  0.07099530  0.48553696     0.00250
C3027       C  0.51988753  0.05265930  0.46106192    -0.08320
C3028       C  0.51675416  0.00622879  0.46355030    -0.05700
C3029       C  0.51637276  0.97754198  0.48934203     0.00230
C3030       C  0.51730485  0.99599656  0.51371885    -0.08230
C3031       C  0.51744648  0.96758420  0.54248933     0.62140
H3032       H  0.52151063  0.05672818  0.52976667     0.12840
H3033       H  0.51604800  0.99157639  0.44519071     0.12850
C3034       C  0.52334582  0.08082533  0.43249145     0.62380
F3035       F  0.50919202  0.99169196  0.56170307    -0.22790
F3036       F  0.54208504  0.95390161  0.54965551    -0.20120
F3037       F  0.50163762  0.93076510  0.54371370    -0.19790
F3038       F  0.54551045  0.10522986  0.43261325    -0.19850
F3039       F  0.00294884  0.10938043  0.42509105    -0.20170
F3040       F  0.02529666  0.05489089  0.41243133    -0.22840
C3041       C  0.67564007  0.37403624  0.50196408    -0.05680
C3042       C  0.67454941  0.42066275  0.49363476     0.00250
C3043       C  0.65096775  0.44262089  0.48698382    -0.08320
C3044       C  0.62877365  0.41669872  0.48943334    -0.05700
C3045       C  0.62987583  0.37005802  0.49734209     0.00230
C3046       C  0.65349527  0.34794660  0.50363180    -0.08230
C3047       C  0.65539606  0.29727116  0.51142052     0.62140
H3048       H  0.69406050  0.35823340  0.50683898     0.12840
H3049       H  0.61038571  0.43245629  0.48420857     0.12850
C3050       C  0.64940754  0.49272993  0.47624912     0.62380
F3051       F  0.67957252  0.28354733  0.52121129    -0.22790
F3052       F  0.64987783  0.27870345  0.48851611    -0.20120
F3053       F  0.63840323  0.28090162  0.53176344    -0.19790
F3054       F  0.66498811  0.50446996  0.45388414    -0.19850
F3055       F  0.65712569  0.51538694  0.49676916    -0.20170
F3056       F  0.62487623  0.50625712  0.46778046    -0.22840
C3057       C  0.93069474  0.61065781  0.49009060    -0.05680
C3058       C  0.92856628  0.65712405  0.48754655     0.00250
C3059       C  0.90468602  0.67679983  0.49066817    -0.08320
C3060       C  0.88386844  0.64872943  0.49730154    -0.05700
C3061       C  0.88579653  0.60244768  0.49942737     0.00230
C3062       C  0.90952458  0.58260572  0.49596560    -0.08230
C3063       C  0.91274457  0.53236249  0.49875329     0.62140
H3064       H  0.94923911  0.59640366  0.48808470     0.12840
H3065       H  0.86545094  0.66353632  0.49937387     0.12850
C3066       C  0.89949060  0.72676445  0.48659931     0.62380
F3067       F  0.93809543  0.51989598  0.50231368    -0.22790
F3068       F  0.90335078  0.51915703  0.47513663    -0.20120
F3069       F  0.89989000  0.50996869  0.52136734    -0.19790
F3070       F  0.87948335  0.73757437  0.46772563    -0.19850
F3071       F  0.91988892  0.75307434  0.47670948    -0.20170
F3072       F  0.89269136  0.73727095  0.51147730    -0.22840
C3073       C  0.65638725  0.94066516  0.48196876    -0.05680
C3074       C  0.67764976  0.91214527  0.48489510     0.00250
C3075       C  0.67421841  0.86528506  0.48861139    -0.08320
C3076       C  0.64925985  0.84854696  0.48933834    -0.05700
C3077       C  0.62802743  0.87709012  0.48667385     0.00230
C3078       C  0.63144716  0.92388160  0.48265365    -0.08230
C3079       C  0.60896079  0.95578883  0.47835576     0.62140
H3080       H  0.65954802  0.97644798  0.47927494     0.12840
H3081       H  0.64604863  0.81277194  0.49204152     0.12850
C3082       C  0.69663995  0.83316011  0.49265444     0.62380
F3083       F  0.61667234  0.00009590  0.47233293    -0.22790
F3084       F  0.59490295  0.94985213  0.50204664    -0.20120
F3085       F  0.59364649  0.94761106  0.45658910    -0.19790
F3086       F  0.71198214  0.84066664  0.51455328    -0.19850
F3087       F  0.71069618  0.83945759  0.46895375    -0.20170
F3088       F  0.68884284  0.78886707  0.49829284    -0.22840
C3089       C  0.77071587  0.78466684  0.51835189    -0.05680
C3090       C  0.78695294  0.81201365  0.50033745     0.00250
C3091       C  0.80357932  0.79287815  0.48376174    -0.08320
C3092       C  0.80277374  0.74653470  0.48496955    -0.05700
C3093       C  0.78610219  0.71940232  0.50240204     0.00230
C3094       C  0.77000188  0.73812825  0.51966885    -0.08230
C3095       C  0.75192048  0.70901694  0.53883587     0.62140
H3096       H  0.75835528  0.80016483  0.53100249     0.12840
H3097       H  0.81496628  0.73108158  0.47211019     0.12850
C3098       C  0.82185955  0.82153435  0.46479478     0.62380
F3099       F  0.73737216  0.73402957  0.55327796    -0.22790
F3100       F  0.76567252  0.67816679  0.55775589    -0.20120
F3101       F  0.73561327  0.68654289  0.52367605    -0.19790
F3102       F  0.83760152  0.84476910  0.48004852    -0.19850
F3103       F  0.80818852  0.85137015  0.44534518    -0.20170
F3104       F  0.83693769  0.79631816  0.45101284    -0.22840
C3105       C  0.76826747  0.23299870  0.51779292    -0.05680
C3106       C  0.77058990  0.22325225  0.49122726     0.00250
C3107       C  0.77254514  0.25866870  0.46815307    -0.08320
C3108       C  0.77322391  0.30265476  0.47286900    -0.05700
C3109       C  0.77154979  0.31231113  0.49952526     0.00230
C3110       C  0.76864457  0.27701180  0.52244470    -0.08230
C3111       C  0.76566992  0.28531087  0.55157567     0.62140
H3112       H  0.76644994  0.20546678  0.53514497     0.12840
H3113       H  0.77527049  0.33019212  0.45556676     0.12850
C3114       C  0.77391052  0.25070729  0.43874971     0.62380
F3115       F  0.75915929  0.24662664  0.56978235    -0.22790
F3116       F  0.74666861  0.31648519  0.55179436    -0.20120
F3117       F  0.78837421  0.30082041  0.56103138    -0.19790
F3118       F  0.75093685  0.23358633  0.43119326    -0.19850
F3119       F  0.79323398  0.22099950  0.43676543    -0.20170
F3120       F  0.77857828  0.28984848  0.42006575    -0.22840
C3121       C  0.90069773  0.10707160  0.48492202    -0.05680
C3122       C  0.87835456  0.13128553  0.48648888     0.00250
C3123       C  0.87899495  0.17843158  0.48248810    -0.08320
C3124       C  0.90246722  0.19998822  0.47723006    -0.05700
C3125       C  0.92496484  0.17576904  0.47598496     0.00230
C3126       C  0.92419811  0.12842281  0.47981143    -0.08230
C3127       C  0.94790759  0.10026976  0.47924235     0.62140
H3128       H  0.89945909  0.07093079  0.48762456     0.12840
H3129       H  0.90358362  0.23612060  0.47463242     0.12850
C3130       C  0.85502059  0.20570904  0.48308917     0.62380
F3131       F  0.94267193  0.05481714  0.48493678    -0.22790
F3132       F  0.96562918  0.10886743  0.49876786    -0.20120
F3133       F  0.95819919  0.11024872  0.45334002    -0.19790
F3134       F  0.84488768  0.19598336  0.50911100    -0.19850
F3135       F  0.83738056  0.19549946  0.46394243    -0.20170
F3136       F  0.85973529  0.25128265  0.47682185    -0.22840
C3137       C  0.69797828  0.03848317  0.61061583    -0.05680
C3138       C  0.70713974  0.99842660  0.62710677     0.00250
C3139       C  0.73199247  0.98400857  0.62349042    -0.08320
C3140       C  0.74702890  0.01078433  0.60351189    -0.05700
C3141       C  0.73787873  0.05082619  0.58706362     0.00230
C3142       C  0.71301737  0.06534139  0.59100311    -0.08230
C3143       C  0.70270006  0.10986580  0.57526462     0.62140
H3144       H  0.67895313  0.04948018  0.61399708     0.12840
H3145       H  0.76572966  0.99952925  0.60000746     0.12850
C3146       C  0.74233461  0.94071035  0.64062853     0.62380
F3147       F  0.68024455  0.12146575  0.58611827    -0.22790
F3148       F  0.69786518  0.10773609  0.54788370    -0.20120
F3149       F  0.72029052  0.14339457  0.57676585    -0.19790
F3150       F  0.72683372  0.90539337  0.63676762    -0.19850
F3151       F  0.74308217  0.94350671  0.66828993    -0.20170
F3152       F  0.76660767  0.93149236  0.63328303    -0.22840
C3153       C  0.58730953  0.83825869  0.63189564    -0.05680
C3154       C  0.61320882  0.84713537  0.63404651     0.00250
C3155       C  0.62944853  0.83240414  0.61459455    -0.08320
C3156       C  0.61869727  0.80595764  0.59614710    -0.05700
C3157       C  0.59215196  0.80376382  0.59172082     0.00230
C3158       C  0.57738469  0.83024387  0.60685372    -0.08230
C3159       C  0.55753575  0.86536748  0.59457472     0.62140
H3160       H  0.57443590  0.85020563  0.64569867     0.12840
H3161       H  0.63081231  0.79208355  0.58250072     0.12850
C3162       C  0.65669515  0.84888261  0.61045708     0.62380
F3163       F  0.53379228  0.85274968  0.60464049    -0.22790
F3164       F  0.55708035  0.87418925  0.56628220    -0.20120
F3165       F  0.56329182  0.90605398  0.60212868    -0.19790
F3166       F  0.65721918  0.89509706  0.60694096    -0.19850
F3167       F  0.67210063  0.83095383  0.63278591    -0.20170
F3168       F  0.66690334  0.83724732  0.58723629    -0.22840
C3169       C  0.70287808  0.52397558  0.61976570    -0.05680
C3170       C  0.71343483  0.48360287  0.63426378     0.00250
C3171       C  0.73943055  0.47481873  0.63088634    -0.08320
C3172       C  0.75372268  0.50650524  0.61289401    -0.05700
C3173       C  0.74285879  0.54584540  0.59736657     0.00230
C3174       C  0.71728728  0.55596836  0.60208693    -0.08230
C3175       C  0.70612161  0.60215915  0.59088735     0.62140
H3176       H  0.68335396  0.53136794  0.62357692     0.12840
H3177       H  0.77329071  0.49889317  0.60991819     0.12850
C3178       C  0.75284875  0.43208169  0.64467526     0.62380
F3179       F  0.68280998  0.60772687  0.60216509    -0.22790
F3180       F  0.70255708  0.60926861  0.56260493    -0.20120
F3181       F  0.72251491  0.63450934  0.59748711    -0.19790
F3182       F  0.73728786  0.40274142  0.66156245    -0.19850
F3183       F  0.77350759  0.44245930  0.66020076    -0.20170
F3184       F  0.76155041  0.41041565  0.62456211    -0.22840
C3185       C  0.58804328  0.30073443  0.63954758    -0.05680
C3186       C  0.60725453  0.33373446  0.63393853     0.00250
C3187       C  0.62141576  0.33482181  0.60963054    -0.08320
C3188       C  0.61548038  0.30431378  0.59189256    -0.05700
C3189       C  0.59575578  0.27226711  0.59683836     0.00230
C3190       C  0.58312453  0.26877816  0.62220348    -0.08230
C3191       C  0.56561798  0.22938886  0.63140905     0.62140
H3192       H  0.57748356  0.29889371  0.65821905     0.12840
H3193       H  0.62463206  0.30840382  0.57225993     0.12850
C3194       C  0.64149515  0.37066340  0.60106976     0.62380
F3195       F  0.55380656  0.23212146  0.65575516    -0.22790
F3196       F  0.57967705  0.19030596  0.63556792    -0.20120
F3197       F  0.54718907  0.22700959  0.61140711    -0.19790
F3198       F  0.66265792  0.36252594  0.61852455    -0.19850
F3199       F  0.63169559  0.41239152  0.60214574    -0.20170
F3200       F  0.64934927  0.37170220  0.57439677    -0.22840
C3201       C  0.65101976  0.67370472  0.71047409    -0.05680
C3202       C  0.64895361  0.64435155  0.73597210     0.00250
C3203       C  0.64758211  0.66259134  0.76041155    -0.08320
C3204       C  0.64897938  0.70940449  0.75806493    -0.05700
C3205       C  0.65057013  0.73879901  0.73240110     0.00230
C3206       C  0.65132881  0.72030273  0.70812305    -0.08230
C3207       C  0.65128478  0.74908532  0.67963036     0.62140
H3208       H  0.65167336  0.65982122  0.69188808     0.12840
H3209       H  0.64834022  0.72360160  0.77654202     0.12850
C3210       C  0.64442868  0.63368939  0.78890833     0.62380
F3211       F  0.64907294  0.72441806  0.65881179    -0.22790
F3212       F  0.67380718  0.77252062  0.67628947    -0.20120
F3213       F  0.63088793  0.77795138  0.67684890    -0.19790
F3214       F  0.66350785  0.60185978  0.79429083    -0.19850
F3215       F  0.62088903  0.61289035  0.79020189    -0.20170
F3216       F  0.64571928  0.65862327  0.80963711    -0.22840
C3217       C  0.63286720  0.17068393  0.72228935    -0.05680
C3218       C  0.64188895  0.14291443  0.74650842     0.00250
C3219       C  0.65166948  0.16184954  0.76873766    -0.08320
C3220       C  0.65225335  0.20885358  0.76548236    -0.05700
C3221       C  0.64388328  0.23630777  0.74070051     0.00230
C3222       C  0.63368718  0.21703921  0.71894858    -0.08230
C3223       C  0.62307367  0.24511722  0.69249472     0.62140
H3224       H  0.62552360  0.15553644  0.70550652     0.12840
H3225       H  0.65950199  0.22459361  0.78206141     0.12850
C3226       C  0.66215636  0.13299174  0.79511941     0.62380
F3227       F  0.61050743  0.21923268  0.67616643    -0.22790
F3228       F  0.64270389  0.26714717  0.67746226    -0.20120
F3229       F  0.60593727  0.27572577  0.69879136    -0.19790
F3230       F  0.68093885  0.10509107  0.78894755    -0.19850
F3231       F  0.64281451  0.10743941  0.80860537    -0.20170
F3232       F  0.67268395  0.15859233  0.81296395    -0.22840
C3233       C  0.82675153  0.51690209  0.63309380    -0.05680
C3234       C  0.84245987  0.51099326  0.61136089     0.00250
C3235       C  0.86671325  0.53208062  0.61025843    -0.08320
C3236       C  0.87292832  0.56213338  0.62806558    -0.05700
C3237       C  0.85611576  0.57189072  0.64792408     0.00230
C3238       C  0.83299384  0.54683991  0.65130552    -0.08230
C3239       C  0.81468257  0.55181592  0.67374425     0.62140
H3240       H  0.80850624  0.50050484  0.63445276     0.12840
H3241       H  0.89111980  0.57922372  0.62572853     0.12850
C3242       C  0.88608723  0.52594341  0.58912507     0.62380
F3243       F  0.79511810  0.52081796  0.67564208    -0.22790
F3244       F  0.80393990  0.59404330  0.66803551    -0.20120
F3245       F  0.82750209  0.54549598  0.69906229    -0.19790
F3246       F  0.88864528  0.56556527  0.57027618    -0.19850
F3247       F  0.87925135  0.49220969  0.57510478    -0.20170
F3248       F  0.90937778  0.51475471  0.60231119    -0.22840
C3249       C  0.97857483  0.73126555  0.62667614    -0.05680
C3250       C  0.95233843  0.73745556  0.62464676     0.00250
C3251       C  0.94237428  0.77265540  0.60418818    -0.08320
C3252       C  0.95915371  0.80086546  0.58733692    -0.05700
C3253       C  0.98567809  0.79359788  0.58813888     0.00230
C3254       C  0.49564233  0.75814614  0.60920510    -0.08230
C3255       C  0.52325251  0.74553464  0.61587111     0.62140
H3256       H  0.48608489  0.70669308  0.64349044     0.12840
H3257       H  0.95102106  0.82787054  0.57203203     0.12850
C3258       C  0.91410423  0.78271930  0.59986813     0.62380
F3259       F  0.52911589  0.74943032  0.64283173    -0.22790
F3260       F  0.52716984  0.70169291  0.61322134    -0.20120
F3261       F  0.53987645  0.77148147  0.59945966    -0.19790
F3262       F  0.90899678  0.82313778  0.60748805    -0.19850
F3263       F  0.89906056  0.74982958  0.61479748    -0.20170
F3264       F  0.90734226  0.78597921  0.57227728    -0.22840
C3265       C  0.50359685  0.55807882  0.74860875    -0.05680
C3266       C  0.49789785  0.59328927  0.72680815     0.00250
C3267       C  0.51513915  0.60516761  0.70518177    -0.08320
C3268       C  0.53813558  0.58159646  0.70633769    -0.05700
C3269       C  0.54397228  0.54666151  0.72838199     0.00230
C3270       C  0.52626097  0.53385950  0.74947230    -0.08230
C3271       C  0.53137894  0.49538538  0.77306452     0.62140
H3272       H  0.99005989  0.54975281  0.76498244     0.12840
H3273       H  0.55168851  0.58999965  0.69000080     0.12850
C3274       C  0.50914124  0.64241353  0.68112599     0.62380
F3275       F  0.50993223  0.48408787  0.78834167    -0.22790
F3276       F  0.55026554  0.50816441  0.78986642    -0.20120
F3277       F  0.53882444  0.45783942  0.76340267    -0.19790
F3278       F  0.50391011  0.68120375  0.69070493    -0.19850
F3279       F  0.98824875  0.63021679  0.66656309    -0.20170
F3280       F  0.52927407  0.65087367  0.66342266    -0.22840
C3281       C  0.77366422  0.78088328  0.72140349    -0.05680
C3282       C  0.79583824  0.80063472  0.73018577     0.00250
C3283       C  0.79503069  0.84501408  0.73506520    -0.08320
C3284       C  0.77136392  0.86660648  0.73297116    -0.05700
C3285       C  0.74908553  0.84615312  0.72496053     0.00230
C3286       C  0.75036830  0.80330807  0.71792471    -0.08230
C3287       C  0.72743203  0.78093434  0.70708332     0.62140
H3288       H  0.77471311  0.74724875  0.71727445     0.12840
H3289       H  0.77005067  0.89995444  0.73753885     0.12850
C3290       C  0.81885015  0.87023860  0.74135146     0.62380
F3291       F  0.73277805  0.73812383  0.70313973    -0.22790
F3292       F  0.71957754  0.80590721  0.68185895    -0.20120
F3293       F  0.70805906  0.77776663  0.72569037    -0.19790
F3294       F  0.83689707  0.86776361  0.72183113    -0.19850
F3295       F  0.82857037  0.85207891  0.76736095    -0.20170
F3296       F  0.81393805  0.91510645  0.74069993    -0.22840
C3297       C  0.84248004  0.06408621  0.64052015    -0.05680
C3298       C  0.86408467  0.09167214  0.63585156     0.00250
C3299       C  0.87867704  0.08875667  0.61230991    -0.08320
C3300       C  0.87006826  0.06071200  0.59382815    -0.05700
C3301       C  0.84812514  0.03350124  0.59838762     0.00230
C3302       C  0.83526034  0.03358602  0.62333647    -0.08230
C3303       C  0.81371479  0.00216053  0.63306022     0.62140
H3304       H  0.83148654  0.06491866  0.65869046     0.12840
H3305       H  0.87962675  0.06188581  0.57454216     0.12850
C3306       C  0.90235387  0.11718848  0.60558984     0.62380
F3307       F  0.81995215  0.97766418  0.65897790    -0.22790
F3308       F  0.80889413  0.97234791  0.61569440    -0.20120
F3309       F  0.79211669  0.02689624  0.63499894    -0.19790
F3310       F  0.92152678  0.10253067  0.62488233    -0.19850
F3311       F  0.89694769  0.16157325  0.60578152    -0.20170
F3312       F  0.91132647  0.11474317  0.57980191    -0.22840
C3313       C  0.98647176  0.20367989  0.63974592    -0.05680
C3314       C  0.98330773  0.23201222  0.65798199     0.00250
C3315       C  0.99536318  0.27478009  0.65252502    -0.08320
C3316       C  0.00340176  0.29197741  0.62555913    -0.05700
C3317       C  0.99968913  0.26717679  0.60465687     0.00230
C3318       C  0.99166870  0.22112707  0.61236328    -0.08230
C3319       C  0.98677455  0.18983088  0.59244512     0.62140
H3320       H  0.98011665  0.16940385  0.64579824     0.12840
H3321       H  0.01126360  0.32549138  0.62060973     0.12850
C3322       C  0.00082197  0.30232034  0.67447845     0.62380
F3323       F  0.97871032  0.14756227  0.60502146    -0.22790
F3324       F  0.00893038  0.18382057  0.57971945    -0.20120
F3325       F  0.96770159  0.20727902  0.57396906    -0.19790
F3326       F  0.99432253  0.27992139  0.70045263    -0.19850
F3327       F  0.98768051  0.34230784  0.66804616    -0.20170
F3328       F  0.02659539  0.31167455  0.67526480    -0.22840
C3329       C  0.52072591  0.11387097  0.73337434    -0.05680
C3330       C  0.99766320  0.09050444  0.73275255     0.00250
C3331       C  0.99795441  0.04369728  0.73325213    -0.08320
C3332       C  0.52153073  0.02197598  0.73442003    -0.05700
C3333       C  0.54455583  0.04522052  0.73512322     0.00230
C3334       C  0.54433450  0.09205900  0.73422068    -0.08230
C3335       C  0.56877324  0.11910039  0.73303639     0.62140
H3336       H  0.52006790  0.14959963  0.73289042     0.12840
H3337       H  0.52222365  0.98628114  0.73479448     0.12850
C3338       C  0.97364091  0.01631982  0.73324252     0.62380
F3339       F  0.56411611  0.16470569  0.72857315    -0.22790
F3340       F  0.58326174  0.11063565  0.71163515    -0.20120
F3341       F  0.58239809  0.10750101  0.75770072    -0.19790
F3342       F  0.96099062  0.02777540  0.70795649    -0.19850
F3343       F  0.95808423  0.02419541  0.75395468    -0.20170
F3344       F  0.97851653  0.97079721  0.73776381    -0.22840
C3345       C  0.90076578  0.95809249  0.76375222    -0.05680
C3346       C  0.89774768  0.98777593  0.73841833     0.00250
C3347       C  0.89357309  0.97087651  0.71385827    -0.08320
C3348       C  0.89278584  0.92464055  0.71548133    -0.05700
C3349       C  0.89550226  0.89476986  0.74075383     0.00230
C3350       C  0.89962219  0.91151558  0.76550315    -0.08230
C3351       C  0.90310417  0.88099792  0.79355131     0.62140
H3352       H  0.90372598  0.97187162  0.78228135     0.12840
H3353       H  0.88937981  0.91137837  0.69683200     0.12850
C3354       C  0.88777282  0.00130762  0.68642281     0.62380
F3355       F  0.91031733  0.90459221  0.81390157    -0.22790
F3356       F  0.92182848  0.84971885  0.79244051    -0.20120
F3357       F  0.88045492  0.85940073  0.80119895    -0.19790
F3358       F  0.90920560  0.02549037  0.67711841    -0.19850
F3359       F  0.87977665  0.97788720  0.66625723    -0.20170
F3360       F  0.86846182  0.02986717  0.69011956    -0.22840
C3361       C  0.89135528  0.41016263  0.76094675    -0.05680
C3362       C  0.88702462  0.39633384  0.73572021     0.00250
C3363       C  0.88422960  0.42892733  0.71093531    -0.08320
C3364       C  0.88753189  0.47414918  0.71236567    -0.05700
C3365       C  0.89247981  0.48768441  0.73751633     0.00230
C3366       C  0.89390639  0.45541945  0.76245672    -0.08230
C3367       C  0.89845290  0.46804307  0.79061200     0.62140
H3368       H  0.89315336  0.38498796  0.77963036     0.12840
H3369       H  0.88588782  0.49957805  0.69375409     0.12850
C3370       C  0.87727033  0.41699381  0.68307910     0.62380
F3371       F  0.90389081  0.43100210  0.81097496    -0.22790
F3372       F  0.87686960  0.48793986  0.79819770    -0.20120
F3373       F  0.91883643  0.49721542  0.78975063    -0.19790
F3374       F  0.85748941  0.38638854  0.68577637    -0.19850
F3375       F  0.89814702  0.39935280  0.67255969    -0.20170
F3376       F  0.86944033  0.45418268  0.66402152    -0.22840
C3377       C  0.74472661  0.29309151  0.72416095    -0.05680
C3378       C  0.74574598  0.33915887  0.72385784     0.00250
C3379       C  0.76952400  0.36017708  0.72727961    -0.08320
C3380       C  0.79146477  0.33359147  0.73170934    -0.05700
C3381       C  0.79034218  0.28736725  0.73256065     0.00230
C3382       C  0.76653587  0.26632191  0.72961635    -0.08230
C3383       C  0.76276590  0.21595766  0.73351418     0.62140
H3384       H  0.72638759  0.27730087  0.72212264     0.12840
H3385       H  0.80982142  0.34906797  0.73412996     0.12850
C3386       C  0.77231470  0.40999162  0.72727419     0.62380
F3387       F  0.74241910  0.20329978  0.75051060    -0.22790
F3388       F  0.78366543  0.19193103  0.74570388    -0.20120
F3389       F  0.75746230  0.20450276  0.70815378    -0.19790
F3390       F  0.77031435  0.41719505  0.75395763    -0.19850
F3391       F  0.75394040  0.43491150  0.71059500    -0.20170
F3392       F  0.79580919  0.42551046  0.71752530    -0.22840
C3393       C  0.97119104  0.69313233  0.87318404    -0.05680
C3394       C  0.95666850  0.65982879  0.88983923     0.00250
C3395       C  0.92961289  0.66320839  0.88678361    -0.08320
C3396       C  0.91880580  0.69319670  0.86398013    -0.05700
C3397       C  0.93389025  0.72175098  0.84528834     0.00230
C3398       C  0.96009815  0.72534083  0.85204267    -0.08230
C3399       C  0.97721105  0.76168663  0.83690720     0.62140
H3400       H  0.49163104  0.69434081  0.87647884     0.12840
H3401       H  0.89859787  0.69170096  0.85930456     0.12850
C3402       C  0.91184195  0.63567968  0.90688431     0.62380
F3403       F  0.49128828  0.78050323  0.85590770    -0.22790
F3404       F  0.96348854  0.79574973  0.82037873    -0.20120
F3405       F  0.99371511  0.74329418  0.82079239    -0.19790
F3406       F  0.91807308  0.64127607  0.93343826    -0.19850
F3407       F  0.91331613  0.59105536  0.90492085    -0.20170
F3408       F  0.88692402  0.64921035  0.90144217    -0.22840
C3409       C  0.55611892  0.44933117  0.84156029    -0.05680
C3410       C  0.58223818  0.45710319  0.83744447     0.00250
C3411       C  0.59436033  0.48819928  0.85226337    -0.08320
C3412       C  0.57997342  0.51315217  0.86765537    -0.05700
C3413       C  0.55416271  0.50544061  0.87184310     0.00230
C3414       C  0.54204962  0.47206071  0.85894449    -0.08230
C3415       C  0.51439656  0.45844313  0.86344335     0.62140
H3416       H  0.54633252  0.42666891  0.83029582     0.12840
H3417       H  0.58942383  0.53619819  0.87890080     0.12850
C3418       C  0.62301518  0.49227655  0.85416114     0.62380
F3419       F  0.50146294  0.46250477  0.83844914    -0.22790
F3420       F  0.50172745  0.48439901  0.87883255    -0.20120
F3421       F  0.51334365  0.41414678  0.87662022    -0.19790
F3422       F  0.63232878  0.51563335  0.82968615    -0.19850
F3423       F  0.63301884  0.44972721  0.86043340    -0.20170
F3424       F  0.63104469  0.51443693  0.87493489    -0.22840
C3425       C  0.91222881  0.16615349  0.86397078    -0.05680
C3426       C  0.92896378  0.19095450  0.84506334     0.00250
C3427       C  0.95528154  0.17959823  0.84857201    -0.08320
C3428       C  0.96235000  0.13757664  0.86416010    -0.05700
C3429       C  0.94609004  0.11299024  0.88350006     0.00230
C3430       C  0.92138703  0.13156607  0.88546748    -0.08230
C3431       C  0.90558119  0.12114751  0.91121690     0.62140
H3432       H  0.89244839  0.17621441  0.86344028     0.12840
H3433       H  0.98227833  0.12803974  0.86488045     0.12850
C3434       C  0.97694723  0.21124219  0.83843086     0.62380
F3435       F  0.88266670  0.10251434  0.90533395    -0.22790
F3436       F  0.90090648  0.16051230  0.92038510    -0.20120
F3437       F  0.91745718  0.09215888  0.93259169    -0.19790
F3438       F  0.96903615  0.25506316  0.82985474    -0.19850
F3439       F  0.98892712  0.19665184  0.81723561    -0.20170
F3440       F  0.99457360  0.21120396  0.85981227    -0.22840
C3441       C  0.54713454  0.91908620  0.87665494    -0.05680
C3442       C  0.55006825  0.96328311  0.88173285     0.00250
C3443       C  0.56797082  0.99138010  0.86592110    -0.08320
C3444       C  0.58457881  0.97323228  0.84943259    -0.05700
C3445       C  0.58072596  0.93101374  0.84196743     0.00230
C3446       C  0.56157940  0.90311809  0.85612350    -0.08230
C3447       C  0.55670659  0.85717704  0.84970811     0.62140
H3448       H  0.53363402  0.89722544  0.88881491     0.12840
H3449       H  0.59969094  0.99487755  0.84004298     0.12850
C3450       C  0.56977655  0.04160357  0.86497300     0.62380
F3451       F  0.53766164  0.83490741  0.86569582    -0.22790
F3452       F  0.57871080  0.83192559  0.85488355    -0.20120
F3453       F  0.54942518  0.86103253  0.82220536    -0.19790
F3454       F  0.58950327  0.05033368  0.88229624    -0.19850
F3455       F  0.54730501  0.05896117  0.87241427    -0.20170
F3456       F  0.57460542  0.06374542  0.83837958    -0.22840
C3457       C  0.98818232  0.81213625  0.96518071    -0.05680
C3458       C  0.51123371  0.83539605  0.96648875     0.00250
C3459       C  0.53422404  0.81294966  0.96319943    -0.08320
C3460       C  0.53348749  0.76703752  0.96135442    -0.05700
C3461       C  0.51060913  0.74286425  0.96141349     0.00230
C3462       C  0.98742511  0.76634949  0.96288074    -0.08230
C3463       C  0.96184392  0.74280683  0.96322602     0.62140
H3464       H  0.97067881  0.82959372  0.96735325     0.12840
H3465       H  0.55107491  0.74910968  0.96196264     0.12850
C3466       C  0.55956441  0.83737809  0.96153772     0.62380
F3467       F  0.94185670  0.77300064  0.95902887    -0.22790
F3468       F  0.95881910  0.71489669  0.98851824    -0.20120
F3469       F  0.96039295  0.71786943  0.94254448    -0.19790
F3470       F  0.57876664  0.81203200  0.95355635    -0.19850
F3471       F  0.55770202  0.87688966  0.94233570    -0.20170
F3472       F  0.56639622  0.84686918  0.98703012    -0.22840
C3473       C  0.53258764  0.24508843  0.03115776    -0.05680
C3474       C  0.51289757  0.22960198  0.01534737     0.00250
C3475       C  0.99282931  0.25977283  0.00437220    -0.08320
C3476       C  0.99466678  0.30464901  0.00733390    -0.05700
C3477       C  0.51564523  0.32072172  0.02045494     0.00230
C3478       C  0.53470374  0.29069445  0.03318241    -0.08230
C3479       C  0.55757996  0.30744068  0.04761815     0.62140
H3480       H  0.54703612  0.22174564  0.04079378     0.12840
H3481       H  0.98033162  0.32855689  0.99776624     0.12850
C3482       C  0.96957126  0.24584485  0.98907862     0.62380
F3483       F  0.57402314  0.27298982  0.05887585    -0.22790
F3484       F  0.54953029  0.32770910  0.06868511    -0.20120
F3485       F  0.57083956  0.33832154  0.02895487    -0.19790
F3486       F  0.95964498  0.20649897  0.00378357    -0.19850
F3487       F  0.97615352  0.24031441  0.96301548    -0.20170
F3488       F  0.95055171  0.27783873  0.98571299    -0.22840
C3489       C  0.83181221  0.65915838  0.86501797    -0.05680
C3490       C  0.82376293  0.67853700  0.83802973     0.00250
C3491       C  0.80251583  0.70810458  0.83421716    -0.08320
C3492       C  0.79236245  0.72182633  0.85726856    -0.05700
C3493       C  0.80201755  0.70572067  0.88396077     0.00230
C3494       C  0.82099613  0.67210569  0.88819384    -0.08230
C3495       C  0.83046487  0.65159072  0.91706264     0.62140
H3496       H  0.84794668  0.63662172  0.86782178     0.12840
H3497       H  0.77709056  0.74624647  0.85431102     0.12850
C3498       C  0.79045825  0.72739388  0.80619330     0.62380
F3499       F  0.84364894  0.61224469  0.91744007    -0.22790
F3500       F  0.81019858  0.64162195  0.93435297    -0.20120
F3501       F  0.84624796  0.68163559  0.92709751    -0.19790
F3502       F  0.76427754  0.72286906  0.80742950    -0.19850
F3503       F  0.79839853  0.70586472  0.78567768    -0.20170
F3504       F  0.79637262  0.77241561  0.79916697    -0.22840
C3505       C  0.69437395  0.82465275  0.86628830    -0.05680
C3506       C  0.68287143  0.82480432  0.89114841     0.00250
C3507       C  0.66356414  0.85745420  0.89192110    -0.08320
C3508       C  0.65969643  0.89272363  0.86889704    -0.05700
C3509       C  0.67442172  0.89647599  0.84528655     0.00230
C3510       C  0.69122837  0.85988773  0.84368935    -0.08230
C3511       C  0.70887863  0.85863520  0.82024367     0.62140
H3512       H  0.70876118  0.79950188  0.86577988     0.12840
H3513       H  0.64559069  0.91823726  0.86978004     0.12850
C3514       C  0.64637984  0.85659584  0.91618087     0.62380
F3515       F  0.71724871  0.81569923  0.81967192    -0.22790
F3516       F  0.72983782  0.88461494  0.82367260    -0.20120
F3517       F  0.69679224  0.87367449  0.79541642    -0.19790
F3518       F  0.65111625  0.89378497  0.92784775    -0.19850
F3519       F  0.64958268  0.81857491  0.93626357    -0.20170
F3520       F  0.62123784  0.85779019  0.90694858    -0.22840
C3521       C  0.64075656  0.70147056  0.94625452    -0.05680
C3522       C  0.66084893  0.67536667  0.95991028     0.00250
C3523       C  0.65932344  0.62819339  0.96411924    -0.08320
C3524       C  0.63653486  0.60873198  0.95693634    -0.05700
C3525       C  0.61510958  0.63483447  0.94670531     0.00230
C3526       C  0.61784630  0.68177987  0.93906486    -0.08230
C3527       C  0.59668582  0.71065156  0.92389581     0.62140
H3528       H  0.64308680  0.73737498  0.94152932     0.12840
H3529       H  0.63443909  0.57264371  0.96169340     0.12850
C3530       C  0.68093662  0.59859693  0.97800632     0.62380
F3531       F  0.60329052  0.75553155  0.91823070    -0.22790
F3532       F  0.57534720  0.70597860  0.93967622    -0.20120
F3533       F  0.59102670  0.69725908  0.89916669    -0.19790
F3534       F  0.68677380  0.60955908  0.00336044    -0.19850
F3535       F  0.70215251  0.60474382  0.96178991    -0.20170
F3536       F  0.67461127  0.55359529  0.98233402    -0.22840
C3537       C  0.90381210  0.89735771  0.99766772    -0.05680
C3538       C  0.90582512  0.93844690  0.97924489     0.00250
C3539       C  0.88326060  0.95980069  0.96709044    -0.08320
C3540       C  0.85963427  0.93783003  0.97213341    -0.05700
C3541       C  0.85772762  0.89657567  0.99034201     0.00230
C3542       C  0.88010277  0.87620388  0.00353990    -0.08230
C3543       C  0.87867519  0.83234151  0.02392725     0.62140
H3544       H  0.92101758  0.88242287  0.00796449     0.12840
H3545       H  0.84240274  0.95266413  0.96184570     0.12850
C3546       C  0.88412470  0.00654539  0.95007937     0.62380
F3547       F  0.90225098  0.81899203  0.03575876    -0.22790
F3548       F  0.86942986  0.79911652  0.01070369    -0.20120
F3549       F  0.86253040  0.83732495  0.04479223    -0.19790
F3550       F  0.90057785  0.00772307  0.92856355    -0.19850
F3551       F  0.89252451  0.03549399  0.96687549    -0.20170
F3552       F  0.86042014  0.02089564  0.93906833    -0.22840
C3553       C  0.81442713  0.16963838  0.89014306    -0.05680
C3554       C  0.80434626  0.21303044  0.88872700     0.00250
C3555       C  0.80175210  0.24138855  0.86259335    -0.08320
C3556       C  0.81115642  0.22711079  0.83925397    -0.05700
C3557       C  0.82375834  0.18561892  0.84070769     0.00230
C3558       C  0.82370565  0.15510369  0.86635888    -0.08230
C3559       C  0.83260757  0.10738934  0.86833496     0.62140
H3560       H  0.81507762  0.14727045  0.91004571     0.12840
H3561       H  0.80964081  0.24974035  0.81948754     0.12850
C3562       C  0.78954675  0.28733261  0.85951868     0.62380
F3563       F  0.83070334  0.08274754  0.89484369    -0.22790
F3564       F  0.85763895  0.10681851  0.86070663    -0.20120
F3565       F  0.81769417  0.08693098  0.85079599    -0.19790
F3566       F  0.80320310  0.31299747  0.87516667    -0.19850
F3567       F  0.76480353  0.28280382  0.86847855    -0.20170
F3568       F  0.78887226  0.31005936  0.83237621    -0.22840
C3569       C  0.68880136  0.34540479  0.87329329    -0.05680
C3570       C  0.70443880  0.36617657  0.89054780     0.00250
C3571       C  0.70539474  0.41469518  0.88438968    -0.08320
C3572       C  0.69199218  0.43857640  0.86129785    -0.05700
C3573       C  0.67702677  0.41788695  0.84392948     0.00230
C3574       C  0.67458539  0.37030609  0.85066582    -0.08230
C3575       C  0.65605221  0.34580685  0.83519426     0.62140
H3576       H  0.68706311  0.30930611  0.87833701     0.12840
H3577       H  0.69380395  0.47479926  0.85612283     0.12850
C3578       C  0.72015610  0.44575343  0.89968438     0.62380
F3579       F  0.63212395  0.36273779  0.83739660    -0.22790
F3580       F  0.65548654  0.30027205  0.84582132    -0.20120
F3581       F  0.66246189  0.35139103  0.80793590    -0.19790
F3582       F  0.73612129  0.47270680  0.88171904    -0.19850
F3583       F  0.73488401  0.42424707  0.92087208    -0.20170
F3584       F  0.70329497  0.47277269  0.91004293    -0.22840
C3585       C  0.63696238  0.12067613  0.98191244    -0.05680
C3586       C  0.61477590  0.14146393  0.98859300     0.00250
C3587       C  0.61532621  0.18794672  0.98870156    -0.08320
C3588       C  0.63839922  0.21151842  0.98329964    -0.05700
C3589       C  0.66083568  0.19037844  0.97748381     0.00230
C3590       C  0.65999574  0.14412773  0.97640995    -0.08230
C3591       C  0.68350517  0.11892014  0.97088715     0.62140
H3592       H  0.63608844  0.08533187  0.98119604     0.12840
H3593       H  0.63930284  0.24673494  0.98435488     0.12850
C3594       C  0.59173469  0.21248553  0.99453519     0.62380
F3595       F  0.67879835  0.07371782  0.97230030    -0.22790
F3596       F  0.70220915  0.12298069  0.99039119    -0.20120
F3597       F  0.69215357  0.13628342  0.94481534    -0.19790
F3598       F  0.58476042  0.19624791  0.02134036    -0.19850
F3599       F  0.57208091  0.20588764  0.97648632    -0.20170
F3600       F  0.59580816  0.25813943  0.99162932    -0.22840
C3601       C  0.76187133  0.50120163  0.02348974    -0.05680
C3602       C  0.77743896  0.48339432  0.00579555     0.00250
C3603       C  0.78786345  0.51243175  0.98276797    -0.08320
C3604       C  0.78007175  0.55722954  0.97659289    -0.05700
C3605       C  0.76406387  0.57510158  0.99382218     0.00230
C3606       C  0.75517949  0.54677285  0.01815843    -0.08230
C3607       C  0.73811469  0.56187383  0.03893519     0.62140
H3608       H  0.75364081  0.47881622  0.04081817     0.12840
H3609       H  0.78772469  0.57900737  0.95881634     0.12850
C3610       C  0.80764259  0.49820964  0.96431326     0.62380
F3611       F  0.71631006  0.53586262  0.04163801    -0.22790
F3612       F  0.73072800  0.60597395  0.03154649    -0.20120
F3613       F  0.75081686  0.55618042  0.06428541    -0.19790
F3614       F  0.79764272  0.50271703  0.93771841    -0.19850
F3615       F  0.81582677  0.45460328  0.97321803    -0.20170
F3616       F  0.82869781  0.52583824  0.96389350    -0.22840
C3617       C  0.76042068  0.06593452  0.96299130    -0.05680
C3618       C  0.75603244  0.08070824  0.98765663     0.00250
C3619       C  0.75014706  0.04860824  0.01172973    -0.08320
C3620       C  0.74956802  0.00305911  0.01025951    -0.05700
C3621       C  0.75479366  0.98809260  0.98595948     0.00230
C3622       C  0.76035264  0.02003154  0.96169425    -0.08230
C3623       C  0.76735075  0.00620152  0.93481241     0.62140
H3624       H  0.76487966  0.09071612  0.94489772     0.12840
H3625       H  0.74549383  0.97835074  0.02852169     0.12850
C3626       C  0.74558688  0.06114763  0.03951404     0.62380
F3627       F  0.77605158  0.04207942  0.91565850    -0.22790
F3628       F  0.74623030  0.98883209  0.92322712    -0.20120
F3629       F  0.78649444  0.97442503  0.93973797    -0.19790
F3630       F  0.72972457  0.09789538  0.03650800    -0.19850
F3631       F  0.76872228  0.07029911  0.05120337    -0.20170
F3632       F  0.73421175  0.02670411  0.05761098    -0.22840
C3633       C  0.87106259  0.41554227  0.01853723    -0.05680
C3634       C  0.87188510  0.37006905  0.01729301     0.00250
C3635       C  0.89565552  0.34756598  0.02080472    -0.08320
C3636       C  0.91811374  0.37248741  0.02339481    -0.05700
C3637       C  0.91739822  0.41895439  0.02231479     0.00230
C3638       C  0.89327683  0.44042808  0.02107494    -0.08230
C3639       C  0.88962737  0.48967807  0.02148478     0.62140
H3640       H  0.85276487  0.43233699  0.01657842     0.12840
H3641       H  0.93651583  0.35642535  0.02398387     0.12850
C3642       C  0.89744973  0.29787447  0.02079551     0.62380
F3643       F  0.87173977  0.49430038  0.04073680    -0.22790
F3644       F  0.88051385  0.51124407  0.99589808    -0.20120
F3645       F  0.91174238  0.51031318  0.02826055    -0.19790
F3646       F  0.89308392  0.29045514  0.99428988    -0.19850
F3647       F  0.87961525  0.27458598  0.03801623    -0.20170
F3648       F  0.92121029  0.28108538  0.03001140    -0.22840
C3649       C  0.68381071  0.72696819  0.11808545    -0.05680
C3650       C  0.70000823  0.69566154  0.13449304     0.00250
C3651       C  0.72663284  0.70082091  0.13051579    -0.08320
C3652       C  0.73579295  0.73527790  0.10916491    -0.05700
C3653       C  0.71938149  0.76778094  0.09350619     0.00230
C3654       C  0.69297080  0.76452269  0.09960816    -0.08230
C3655       C  0.67383892  0.80089126  0.08776707     0.62140
H3656       H  0.66360159  0.72436105  0.12180372     0.12840
H3657       H  0.75583132  0.73690619  0.10461081     0.12850
C3658       C  0.74511920  0.67000677  0.14903528     0.62380
F3659       F  0.65494168  0.80331026  0.10642977    -0.22790
F3660       F  0.66257395  0.79125522  0.06396459    -0.20120
F3661       F  0.68529179  0.84259936  0.08208909    -0.19790
F3662       F  0.73959159  0.62603700  0.14749312    -0.19850
F3663       F  0.74298458  0.67548475  0.17607014    -0.20170
F3664       F  0.77007838  0.67875040  0.14145754    -0.22840
C3665       C  0.57813005  0.48449478  0.12103880    -0.05680
C3666       C  0.56125439  0.51298477  0.10326462     0.00250
C3667       C  0.55974119  0.55848294  0.10661336    -0.08320
C3668       C  0.57456599  0.57339563  0.12699970    -0.05700
C3669       C  0.59150697  0.54560843  0.14455336     0.00230
C3670       C  0.59343538  0.50014809  0.14155698    -0.08230
C3671       C  0.61271890  0.46931860  0.15850615     0.62140
H3672       H  0.58061732  0.45081449  0.11740129     0.12840
H3673       H  0.57329491  0.60834026  0.12875646     0.12850
C3674       C  0.54406646  0.59433000  0.08817616     0.62380
F3675       F  0.61031440  0.42575726  0.15429838    -0.22790
F3676       F  0.60983774  0.46900820  0.18631752    -0.20120
F3677       F  0.63669712  0.48459397  0.15069684    -0.19790
F3678       F  0.03076516  0.61875079  0.10410915    -0.19850
F3679       F  0.52659237  0.57670928  0.07212989    -0.20170
F3680       F  0.06009494  0.62292443  0.07132662    -0.22840
C3681       C  0.68960242  0.55434762  0.38781955    -0.05680
C3682       C  0.71545138  0.56458580  0.38869177     0.00250
C3683       C  0.72439623  0.60197291  0.36967963    -0.08320
C3684       C  0.70688895  0.63095831  0.35349729    -0.05700
C3685       C  0.68074333  0.62077516  0.35123025     0.00230
C3686       C  0.67250481  0.57922525  0.36807327    -0.08230
C3687       C  0.64734730  0.55633520  0.36578855     0.62140
H3688       H  0.68270952  0.52591739  0.40250999     0.12840
H3689       H  0.71448250  0.66095909  0.34079581     0.12850
C3690       C  0.75241486  0.61310469  0.36564498     0.62380
F3691       F  0.65129925  0.51171577  0.36480453    -0.22790
F3692       F  0.63420824  0.57480985  0.34235813    -0.20120
F3693       F  0.63312222  0.55834340  0.38866122    -0.19790
F3694       F  0.75777808  0.61666971  0.33801656    -0.19850
F3695       F  0.76835514  0.58078351  0.38055034    -0.20170
F3696       F  0.75764995  0.65365605  0.37334404    -0.22840
C3697       C  0.54452466  0.64925253  0.37826949    -0.05680
C3698       C  0.56267285  0.66736828  0.39483335     0.00250
C3699       C  0.58866663  0.65650423  0.39240323    -0.08320
C3700       C  0.59554741  0.63385251  0.37128561    -0.05700
C3701       C  0.57771005  0.61962715  0.35294453     0.00230
C3702       C  0.55159906  0.62538471  0.35761462    -0.08230
C3703       C  0.53059240  0.60833117  0.34075746     0.62140
H3704       H  0.52447291  0.65512074  0.38070214     0.12840
H3705       H  0.61547626  0.63192736  0.36698138     0.12850
C3706       C  0.60956040  0.66984456  0.41110530     0.62380
F3707       F  0.01452095  0.58100280  0.35833612    -0.22790
F3708       F  0.53980063  0.58371667  0.32232034    -0.20120
F3709       F  0.51681787  0.64419704  0.32625459    -0.19790
F3710       F  0.60267883  0.65847218  0.43841714    -0.19850
F3711       F  0.61379192  0.71541424  0.40410507    -0.20170
F3712       F  0.63227623  0.64829252  0.40861866    -0.22840
C3713       C  0.72878038  0.22147512  0.15306017    -0.05680
C3714       C  0.70811538  0.19372355  0.14769952     0.00250
C3715       C  0.69634593  0.20286284  0.12106312    -0.08320
C3716       C  0.70509581  0.23951753  0.10157311    -0.05700
C3717       C  0.72682660  0.26500885  0.10605489     0.00230
C3718       C  0.73803026  0.25738723  0.13295268    -0.08230
C3719       C  0.75731210  0.29006525  0.14138175     0.62140
H3720       H  0.73716140  0.21585759  0.17371827     0.12840
H3721       H  0.69475773  0.24833991  0.08214003     0.12850
C3722       C  0.67430630  0.17497396  0.11300542     0.62380
F3723       F  0.76373326  0.27938527  0.16925873    -0.22790
F3724       F  0.74701531  0.33266347  0.13599008    -0.20120
F3725       F  0.77938044  0.29041526  0.12692754    -0.19790
F3726       F  0.65366823  0.17886341  0.12898260    -0.19850
F3727       F  0.68155901  0.13056811  0.11662458    -0.20170
F3728       F  0.66653225  0.18850125  0.08566706    -0.22840
C3729       C  0.56451833  0.05117088  0.10534988    -0.05680
C3730       C  0.57350530  0.01106773  0.09880540     0.00250
C3731       C  0.59386106  0.98920147  0.11536986    -0.08320
C3732       C  0.60438128  0.00859084  0.13753431    -0.05700
C3733       C  0.59590517  0.05031799  0.14291934     0.00230
C3734       C  0.57562542  0.07207695  0.12580139    -0.08230
C3735       C  0.56670155  0.11928308  0.12692162     0.62140
H3736       H  0.54983363  0.06903242  0.09217521     0.12840
H3737       H  0.61980795  0.99176404  0.15033206     0.12850
C3738       C  0.60477293  0.94662250  0.10894633     0.62380
F3739       F  0.55075873  0.13710753  0.10476895    -0.22790
F3740       F  0.58751107  0.14745780  0.12611236    -0.20120
F3741       F  0.55331048  0.11891148  0.15066787    -0.19790
F3742       F  0.61447030  0.95504884  0.08268765    -0.19850
F3743       F  0.58577203  0.91470314  0.11018758    -0.20170
F3744       F  0.62412636  0.92954850  0.12749643    -0.22840
C3745       C  0.63006287  0.91453656  0.22383568    -0.05680
C3746       C  0.64087393  0.93026136  0.24640981     0.00250
C3747       C  0.64797966  0.89934593  0.27086349    -0.08320
C3748       C  0.64421345  0.85349965  0.27145143    -0.05700
C3749       C  0.63378194  0.83786802  0.24867684     0.00230
C3750       C  0.62533981  0.86890167  0.22495048    -0.08230
C3751       C  0.61075161  0.85555507  0.20075087     0.62140
H3752       H  0.62398806  0.93849637  0.20562656     0.12840
H3753       H  0.65052072  0.82949501  0.28953107     0.12850
C3754       C  0.66027038  0.91184055  0.29661220     0.62380
F3755       F  0.59169229  0.88637275  0.19136834    -0.22790
F3756       F  0.59917293  0.81416282  0.20789112    -0.20120
F3757       F  0.62722542  0.85478878  0.17950552    -0.19790
F3758       F  0.64392147  0.90070680  0.31834529    -0.19850
F3759       F  0.66626293  0.95662266  0.29368920    -0.20170
F3760       F  0.68262075  0.88790303  0.30321398    -0.22840
C3761       C  0.63573045  0.40397250  0.26894677    -0.05680
C3762       C  0.64816472  0.43076781  0.24654421     0.00250
C3763       C  0.66474286  0.40935254  0.23083739    -0.08320
C3764       C  0.66472337  0.36247893  0.23531905    -0.05700
C3765       C  0.65025423  0.33596054  0.25587931     0.00230
C3766       C  0.63745502  0.35711792  0.27481088    -0.08230
C3767       C  0.62637155  0.33157502  0.30153194     0.62140
H3768       H  0.62434886  0.41984201  0.28224261     0.12840
H3769       H  0.67610858  0.34608474  0.22229035     0.12850
C3770       C  0.68311508  0.43444457  0.21008090     0.62380
F3771       F  0.61824842  0.36009219  0.31830282    -0.22790
F3772       F  0.64484809  0.30404100  0.31631580    -0.20120
F3773       F  0.60569380  0.30611064  0.29607956    -0.19790
F3774       F  0.69846381  0.46180547  0.22273670    -0.19850
F3775       F  0.66998480  0.45974832  0.18810339    -0.20170
F3776       F  0.69892062  0.40589038  0.19957493    -0.22840
C3777       C  0.67358040  0.06754387  0.35931711    -0.05680
C3778       C  0.67269651  0.11418479  0.35878417     0.00250
C3779       C  0.68618537  0.13131668  0.37937490    -0.08320
C3780       C  0.70267709  0.10279717  0.39745583    -0.05700
C3781       C  0.70633540  0.05732646  0.39600399     0.00230
C3782       C  0.69053451  0.03870640  0.37741179    -0.08230
C3783       C  0.69320793  0.98999777  0.37507797     0.62140
H3784       H  0.66299928  0.05481366  0.34336065     0.12840
H3785       H  0.71427975  0.11714564  0.41174570     0.12850
C3786       C  0.68418271  0.18042829  0.38099135     0.62380
F3787       F  0.67708215  0.97879633  0.35483652    -0.22790
F3788       F  0.68740398  0.96281373  0.39993235    -0.20120
F3789       F  0.71791891  0.98169337  0.36850718    -0.19790
F3790       F  0.65881824  0.19199479  0.38138532    -0.19850
F3791       F  0.69518995  0.20645102  0.35826256    -0.20170
F3792       F  0.69619907  0.18974581  0.40457452    -0.23320
C3793       C  0.54745632  0.17159916  0.36975702    -0.05680
C3794       C  0.56458553  0.17760467  0.39119569     0.00250
C3795       C  0.58760445  0.15230815  0.39459576    -0.08320
C3796       C  0.59377860  0.12667687  0.37454310    -0.05700
C3797       C  0.57775397  0.12496456  0.35150595     0.00230
C3798       C  0.55351386  0.14543778  0.35017823    -0.08230
C3799       C  0.53405506  0.14292931  0.32729300     0.62140
H3800       H  0.52924596  0.18864073  0.36769729     0.12840
H3801       H  0.61245346  0.11154625  0.37520263     0.12850
C3802       C  0.60590503  0.15249603  0.41888448     0.62380
F3803       F  0.51114856  0.12779942  0.33876862    -0.22790
F3804       F  0.54131580  0.11405608  0.31039233    -0.20120
F3805       F  0.53053609  0.18517072  0.31140966    -0.19790
F3806       F  0.59303997  0.14290148  0.44337811    -0.19850
F3807       F  0.61727653  0.19401471  0.41636343    -0.20170
F3808       F  0.62495151  0.12084739  0.42013633    -0.22840
C3809       C  0.85465043  0.77950589  0.12875191    -0.05680
C3810       C  0.84071089  0.80714826  0.14310690     0.00250
C3811       C  0.81417166  0.81388508  0.13612850    -0.08320
C3812       C  0.80382610  0.79633855  0.11399822    -0.05700
C3813       C  0.81835339  0.77283073  0.09828132     0.00230
C3814       C  0.84368680  0.76152785  0.10669219    -0.08230
C3815       C  0.85873376  0.73045711  0.09260450     0.62140
H3816       H  0.87442570  0.77255330  0.13454687     0.12840
H3817       H  0.78424914  0.80355344  0.10732988     0.12850
C3818       C  0.79624418  0.84009852  0.15086748     0.62380
F3819       F  0.88309226  0.72327372  0.10393343    -0.22790
F3820       F  0.86060742  0.74818645  0.06483403    -0.20120
F3821       F  0.84642444  0.68958093  0.09556150    -0.19790
F3822       F  0.80377075  0.88440962  0.14722197    -0.19850
F3823       F  0.79607693  0.82098963  0.17859462    -0.20170
F3824       F  0.77134882  0.83984490  0.14089128    -0.22840
C3825       C  0.94259983  0.98528625  0.12594448    -0.05680
C3826       C  0.95266708  0.94219175  0.13496699     0.00250
C3827       C  0.97677973  0.93269311  0.12531725    -0.08320
C3828       C  0.99022886  0.96724210  0.10777820    -0.05700
C3829       C  0.98040574  0.01115034  0.10005214     0.00230
C3830       C  0.95645509  0.02031667  0.11028629    -0.08230
C3831       C  0.94476871  0.06685550  0.10545616     0.62140
H3832       H  0.92420223  0.99267446  0.13313159     0.12840
H3833       H  0.50784637  0.95953459  0.09883401     0.12850
C3834       C  0.98737494  0.88567751  0.13236501     0.62380
F3835       F  0.93532236  0.07507504  0.12991009    -0.22790
F3836       F  0.92496103  0.06935603  0.08618276    -0.20120
F3837       F  0.96226503  0.10023212  0.09640677    -0.19790
F3838       F  0.97080104  0.85678149  0.12227487    -0.19850
F3839       F  0.99002498  0.87229045  0.16060972    -0.20170
F3840       F  0.51092030  0.88270265  0.12096777    -0.22840
C3841       C  0.99044133  0.73835401  0.23619021    -0.05680
C3842       C  0.99170218  0.78502541  0.22900203     0.00250
C3843       C  0.51553879  0.80706564  0.22983926    -0.08320
C3844       C  0.53730000  0.78132436  0.23839009    -0.05700
C3845       C  0.53599201  0.73474121  0.24591310     0.00230
C3846       C  0.01214658  0.71271941  0.24532978    -0.08230
C3847       C  0.00831833  0.66274611  0.25498548     0.62140
H3848       H  0.97201041  0.72198046  0.23662022     0.12840
H3849       H  0.55571474  0.79771139  0.23805953     0.12850
C3850       C  0.51932999  0.85734421  0.22163513     0.62380
F3851       F  0.98937730  0.65565079  0.27427116    -0.22790
F3852       F  0.52995630  0.64122913  0.26721473    -0.20120
F3853       F  0.00079212  0.64375346  0.23273403    -0.19790
F3854       F  0.52897454  0.87371871  0.24412024    -0.19850
F3855       F  0.99723362  0.88031310  0.21230640    -0.20170
F3856       F  0.53665746  0.86598425  0.20067841    -0.22840
C3857       C  0.77377469  0.97691963  0.26037091    -0.05680
C3858       C  0.79407754  0.00105704  0.24694275     0.00250
C3859       C  0.78910701  0.04178455  0.22821843    -0.08320
C3860       C  0.76379240  0.05679782  0.22363349    -0.05700
C3861       C  0.74344059  0.03206787  0.23668625     0.00230
C3862       C  0.74846645  0.99117741  0.25518069    -0.08230
C3863       C  0.72785323  0.96124607  0.26972241     0.62140
H3864       H  0.77758058  0.94497996  0.27377720     0.12840
H3865       H  0.75993960  0.08885266  0.21025837     0.12850
C3866       C  0.80965149  0.07064447  0.21264298     0.62380
F3867       F  0.73196059  0.91744907  0.26694173    -0.22790
F3868       F  0.70385184  0.97322971  0.25888797    -0.20120
F3869       F  0.72863160  0.96324713  0.29749690    -0.19790
F3870       F  0.80577970  0.07245657  0.18461669    -0.19850
F3871       F  0.83398016  0.05492696  0.21997206    -0.20170
F3872       F  0.80814617  0.11356203  0.21797712    -0.22840
C3873       C  0.80101217  0.90217768  0.37841606    -0.05680
C3874       C  0.81821694  0.92010790  0.39601804     0.00250
C3875       C  0.84463911  0.91028207  0.39458785    -0.08320
C3876       C  0.85273985  0.88774669  0.37389407    -0.05700
C3877       C  0.83582086  0.87448020  0.35450787     0.00230
C3878       C  0.80944274  0.87968185  0.35765709    -0.08230
C3879       C  0.79051043  0.86224346  0.33853667     0.62140
H3880       H  0.78083971  0.90758931  0.38016113     0.12840
H3881       H  0.87288777  0.88446315  0.37090642     0.12850
C3882       C  0.86480241  0.92467145  0.41379379     0.62380
F3883       F  0.76562197  0.86884941  0.34529515    -0.22790
F3884       F  0.79428551  0.81680522  0.34036521    -0.20120
F3885       F  0.79393001  0.88376711  0.31160174    -0.19790
F3886       F  0.85764689  0.91239447  0.44092783    -0.19850
F3887       F  0.86809022  0.97054089  0.40712293    -0.20170
F3888       F  0.88813563  0.90485603  0.41163982    -0.22840
C3889       C  0.92222673  0.84098298  0.35934919    -0.05680
C3890       C  0.93654594  0.87829842  0.34676079     0.00250
C3891       C  0.96326453  0.87821812  0.35232033    -0.08320
C3892       C  0.97467552  0.84013042  0.36855503    -0.05700
C3893       C  0.96025104  0.80497111  0.38312921     0.00230
C3894       C  0.93355818  0.80514595  0.37829324    -0.08230
C3895       C  0.91732562  0.76749508  0.39338183     0.62140
H3896       H  0.90218721  0.83967197  0.35399418     0.12840
H3897       H  0.49503254  0.84018567  0.37268753     0.12850
C3898       C  0.98021966  0.91807583  0.34160117     0.62380
F3899       F  0.89207127  0.77173137  0.38454714    -0.22790
F3900       F  0.91846850  0.76751833  0.42135443    -0.20120
F3901       F  0.92631001  0.72695322  0.38885324    -0.19790
F3902       F  0.96709634  0.95795618  0.33930608    -0.19850
F3903       F  0.98931309  0.91422389  0.31622324    -0.20170
F3904       F  0.50089652  0.92001182  0.35924610    -0.22840
C3905       C  0.83156698  0.25009781  0.15545741    -0.05680
C3906       C  0.85148667  0.28175567  0.15181976     0.00250
C3907       C  0.86438011  0.28968123  0.12637013    -0.08320
C3908       C  0.85468808  0.27049159  0.10449554    -0.05700
C3909       C  0.83295263  0.24327223  0.10708353     0.00230
C3910       C  0.82273471  0.22936083  0.13352788    -0.08230
C3911       C  0.80283539  0.19260565  0.13819707     0.62140
H3912       H  0.82290505  0.24195314  0.17545279     0.12840
H3913       H  0.86246931  0.28034311  0.08417877     0.12850
C3914       C  0.88723337  0.32077246  0.12146064     0.62380
F3915       F  0.79489875  0.18404225  0.16520421    -0.22790
F3916       F  0.81318811  0.15377226  0.13253996    -0.20120
F3917       F  0.78179771  0.20405072  0.12095496    -0.19790
F3918       F  0.88160039  0.36111077  0.12876960    -0.19850
F3919       F  0.90792824  0.30149863  0.13710535    -0.20170
F3920       F  0.89410252  0.32945894  0.09405641    -0.22840
C3921       C  0.93556458  0.50328711  0.09556353    -0.05680
C3922       C  0.96152272  0.51003459  0.10028579     0.00250
C3923       C  0.97366988  0.48265779  0.12342417    -0.08320
C3924       C  0.96132183  0.44464007  0.13754698    -0.05700
C3925       C  0.93542476  0.43749684  0.13295913     0.00230
C3926       C  0.92204825  0.46826727  0.11193985    -0.08230
C3927       C  0.89387502  0.46329135  0.10526141     0.62140
H3928       H  0.92639535  0.52311908  0.07738699     0.12840
H3929       H  0.97114722  0.42400277  0.15506531     0.12850
C3930       C  0.99997003  0.49248300  0.13351085     0.62380
F3931       F  0.88380834  0.50344442  0.09126821    -0.22790
F3932       F  0.87977572  0.45059594  0.12865109    -0.20120
F3933       F  0.89094865  0.43158612  0.08875805    -0.19790
F3934       F  0.00807702  0.53394368  0.12032448    -0.19850
F3935       F  0.51663684  0.45984844  0.12897451    -0.20170
F3936       F  0.49975064  0.49268481  0.16152071    -0.22840
C3937       C  0.51717140  0.31884655  0.23334477    -0.05680
C3938       C  0.99436168  0.29445756  0.23826488     0.00250
C3939       C  0.99577864  0.24717892  0.24638787    -0.08320
C3940       C  0.51971418  0.22603358  0.24945050    -0.05700
C3941       C  0.54238636  0.25020123  0.24429149     0.00230
C3942       C  0.54115961  0.29727533  0.23527568    -0.08230
C3943       C  0.56491096  0.32404095  0.22638312     0.62140
H3944       H  0.01597464  0.35492220  0.22727722     0.12840
H3945       H  0.52092654  0.18989724  0.25520992     0.12850
C3946       C  0.97201110  0.21890916  0.25075529     0.62380
F3947       F  0.55967177  0.36911248  0.21752567    -0.22790
F3948       F  0.57573343  0.30817880  0.20489314    -0.20120
F3949       F  0.58223993  0.31979132  0.24820113    -0.19790
F3950       F  0.95890474  0.22394410  0.22582170    -0.19850
F3951       F  0.95701669  0.23263224  0.27015082    -0.20170
F3952       F  0.97735742  0.17387465  0.25968800    -0.22840
C3953       C  0.88591930  0.65784580  0.26603838    -0.05680
C3954       C  0.88475297  0.68501784  0.23953418     0.00250
C3955       C  0.88016930  0.66509335  0.21621759    -0.08320
C3956       C  0.87781565  0.61838248  0.22031676    -0.05700
C3957       C  0.87968671  0.59094460  0.24677359     0.00230
C3958       C  0.88309912  0.61114906  0.27026350    -0.08230
C3959       C  0.88401093  0.58428406  0.29963198     0.62140
H3960       H  0.88909130  0.67377488  0.28368170     0.12840
H3961       H  0.87454664  0.60279814  0.20255045     0.12850
C3962       C  0.87674572  0.69272396  0.18731414     0.62380
F3963       F  0.88837853  0.61117567  0.31898492    -0.22790
F3964       F  0.90339896  0.55304279  0.30267955    -0.20120
F3965       F  0.86095663  0.56284423  0.30544612    -0.19790
F3966       F  0.89935062  0.71376598  0.17887283    -0.19850
F3967       F  0.85797003  0.72430466  0.18730248    -0.20170
F3968       F  0.86951591  0.66675176  0.16820969    -0.22840
C3969       C  0.87268103  0.10598149  0.25978242    -0.05680
C3970       C  0.89375021  0.09077558  0.24737084     0.00250
C3971       C  0.91150708  0.12187536  0.23369920    -0.08320
C3972       C  0.90743712  0.16712964  0.23307159    -0.05700
C3973       C  0.88752614  0.18238447  0.24702521     0.00230
C3974       C  0.86902499  0.15154734  0.25972052    -0.08230
C3975       C  0.84503309  0.16604707  0.27207655     0.62140
H3976       H  0.85886470  0.08176006  0.26937170     0.12840
H3977       H  0.92001211  0.19109879  0.22145850     0.12850
C3978       C  0.93501642  0.10803665  0.22029907     0.62380
F3979       F  0.82730766  0.13177451  0.27707555    -0.22790
F3980       F  0.83373646  0.20137240  0.25400757    -0.20120
F3981       F  0.85100966  0.17871697  0.29693865    -0.19790
F3982       F  0.92793966  0.09317873  0.19643693    -0.19850
F3983       F  0.94772524  0.07488449  0.23863940    -0.20170
F3984       F  0.95189465  0.14305421  0.21300943    -0.22840
C3985       C  0.76734217  0.47431221  0.26423814    -0.05680
C3986       C  0.78581134  0.48734514  0.24453368     0.00250
C3987       C  0.78034718  0.52068215  0.22087582    -0.08320
C3988       C  0.75600878  0.53999681  0.21768346    -0.05700
C3989       C  0.73739116  0.52652036  0.23726274     0.00230
C3990       C  0.74283781  0.49248768  0.26068720    -0.08230
C3991       C  0.72356435  0.47398672  0.28235602     0.62140
H3992       H  0.77179989  0.44819441  0.28197192     0.12840
H3993       H  0.75155813  0.56674631  0.20035495     0.12850
C3994       C  0.80041098  0.53669450  0.19966690     0.62380
F3995       F  0.72886955  0.49051693  0.30607501    -0.22790
F3996       F  0.72510823  0.42772469  0.28851204    -0.20120
F3997       F  0.69881827  0.48479482  0.27378310    -0.19790
F3998       F  0.80639208  0.50274981  0.18595577    -0.19850
F3999       F  0.82212276  0.54934925  0.21272122    -0.20170
F4000       F  0.79209230  0.57308557  0.18018838    -0.22840
C4001       C  0.82621372  0.37695766  0.40706415    -0.05680
C4002       C  0.80800365  0.41175552  0.40212814     0.00250
C4003       C  0.79573272  0.42180188  0.37573231    -0.08320
C4004       C  0.80451769  0.40150112  0.35436093    -0.05700
C4005       C  0.82478211  0.37070585  0.35831002     0.00230
C4006       C  0.83398896  0.35481327  0.38568674    -0.08230
C4007       C  0.85133453  0.31432196  0.39220077     0.62140
H4008       H  0.83429524  0.36725365  0.42775469     0.12840
H4009       H  0.79680690  0.41210465  0.33355878     0.12850
C4010       C  0.77431247  0.45577657  0.36960021     0.62380
F4011       F  0.85805310  0.30396879  0.41999712    -0.22790
F4012       F  0.87334684  0.32162452  0.37741111    -0.20120
F4013       F  0.83877352  0.27784835  0.38516983    -0.19790
F4014       F  0.78215970  0.49595621  0.37620129    -0.19850
F4015       F  0.75337072  0.44000072  0.38487485    -0.20170
F4016       F  0.76686558  0.46380791  0.34201712    -0.22840
C4017       C  0.95471379  0.37668998  0.34331438    -0.05680
C4018       C  0.93113307  0.39456057  0.34890941     0.00250
C4019       C  0.92074748  0.37920277  0.37517677    -0.08320
C4020       C  0.93217434  0.34172522  0.39266945    -0.05700
C4021       C  0.95486592  0.32211154  0.38578892     0.00230
C4022       C  0.96609099  0.33971671  0.36054831    -0.08230
C4023       C  0.99062956  0.31991598  0.35229102     0.62140
H4024       H  0.96404221  0.39044305  0.32443976     0.12840
H4025       H  0.92535700  0.33094413  0.41340820     0.12850
C4026       C  0.90118904  0.40688954  0.38666140     0.62380
F4027       F  0.99751760  0.33933216  0.32580951    -0.22790
F4028       F  0.98730772  0.27449833  0.35324575    -0.20120
F4029       F  0.51045854  0.32616054  0.37017047    -0.19790
F4030       F  0.87857410  0.40959600  0.37171666    -0.19850
F4031       F  0.91061349  0.44972006  0.38553828    -0.20170
F4032       F  0.89601047  0.38904333  0.41391313    -0.22840
loop_ 
_geom_bond_atom_site_label_1 
_geom_bond_atom_site_label_2 
_geom_bond_distance 
_geom_bond_site_symmetry_2 
_ccdc_geom_bond_type 
O1          Zr13   2.537       .  S
O1            C3   1.304       .  A
O2          Zr39   2.370       .  S
O2            C3   1.279       .  A
C3         C1989   1.503       .  S
O4          Zr16   2.434       .  S
O4            C6   1.284       .  A
O5          Zr40   2.467       .  S
O5            C6   1.294       .  A
C6         C1922   1.499       .  S
O7          Zr16   2.410       .  S
O7            C9   1.265       .  A
O8          Zr39   2.495       .  S
O8            C9   1.289       .  A
C9         C2002   1.502       .  S
O10         Zr13   2.417       .  S
O10          C12   1.283       .  A
O11         Zr40   2.414       .  S
O11          C12   1.289       .  A
C12        C1957   1.472       .  S
Zr13         O14   2.435       .  S
Zr13         O15   2.437       .  S
Zr13         O19   2.342       .  S
Zr13         O20   2.421       .  S
Zr13         O43   2.388       .  S
Zr13         O45   2.349       .  S
O14          H57   0.990       .  S
O15          H56   0.989       .  S
O15          H60   0.990       .  S
Zr16         O17   2.441       .  S
Zr16         O18   2.436       .  S
Zr16         O20   2.358       .  S
Zr16         O19   2.394       .  S
Zr16         O44   2.397       .  S
Zr16         O46   2.358       .  S
O17          H58   0.988       .  S
O17          H61   0.989       .  S
O18          H51   0.990       .  S
O19         Zr39   2.383       .  S
O20         Zr40   2.381       .  S
O20          H47   0.964       .  S
O21         Zr33   2.504       .  S
O21          C23   1.299       .  A
O22         Zr40   2.393       .  S
O22          C23   1.281       .  A
C23        C1890   1.495       .  S
O24         Zr36   2.413       .  S
O24          C26   1.283       .  A
O25         Zr39   2.420       .  S
O25          C26   1.285       .  A
C26        C1941   1.484       .  S
O27         Zr36   2.326       .  S
O27          C29   1.267       .  A
O28         Zr40   2.501       .  S
O28          C29   1.301       .  A
C29        C1909   1.460       .  S
O30         Zr33   2.410       .  S
O30          C32   1.283       .  A
O31         Zr39   2.444       .  S
O31          C32   1.292       .  A
C32        C1970   1.460       .  S
Zr33         O34   2.437       .  S
Zr33         O35   2.434       .  S
Zr33         O41   2.347       .  S
Zr33         O42   2.388       .  S
Zr33         O45   2.390       .  S
Zr33         O43   2.330       .  S
O34          H54   0.990       .  S
O34          H59   0.990       .  S
O35          H55   0.990       .  S
Zr36         O37   2.434       .  S
Zr36         O38   2.436       .  S
Zr36         O42   2.330       .  S
Zr36         O41   2.380       .  S
Zr36         O46   2.382       .  S
Zr36         O44   2.329       .  S
O37          H53   0.990       .  S
O38          H52   0.990       .  S
O38          H62   0.990       .  S
Zr39         O42   2.381       .  S
Zr39         O44   2.387       .  S
Zr39         O45   2.400       .  S
Zr40         O41   2.374       .  S
Zr40         O43   2.401       .  S
Zr40         O46   2.365       .  S
O41          H49   0.964       .  S
O44          H48   0.966       .  S
O45          H50   0.966       .  S
O63         Zr75   2.425   1_545  S
O63          C65   1.284       .  A
O64        Zr101   2.391   1_545  S
O64          C65   1.283       .  A
C65        C1954   1.465       .  S
O66         Zr78   2.437       .  S
O66          C68   1.284       .  A
O67        Zr102   2.443       .  S
O67          C68   1.291       .  A
C68        C1794   1.510       .  S
O69         Zr78   2.403       .  S
O69          C71   1.280       .  A
O70        Zr101   2.464       .  S
O70          C71   1.294       .  A
C71        C1842   1.469   1_565  S
O72         Zr75   2.398       .  S
O72          C74   1.272       .  A
O73        Zr102   2.520       .  S
O73          C74   1.300       .  A
C74        C1810   1.496       .  S
Zr75         O76   2.431   1_565  S
Zr75         O77   2.434   1_565  S
Zr75         O81   2.352       .  S
Zr75         O82   2.383       .  S
Zr75        O105   2.356       .  S
Zr75        O107   2.349       .  S
O76         H119   0.989       .  S
O77         H118   0.988       .  S
O77         H122   0.988       .  S
Zr78         O79   2.436       .  S
Zr78         O80   2.432       .  S
Zr78         O82   2.366       .  S
Zr78         O81   2.359       .  S
Zr78        O106   2.378       .  S
Zr78        O108   2.352       .  S
O79         H120   0.990       .  S
O79         H123   0.990       .  S
O80         H113   0.990       .  S
O81        Zr101   2.377       .  S
O82        Zr102   2.397       .  S
O82         H109   0.966       .  S
O83         Zr95   2.384       .  S
O83          C85   1.277       .  A
O84        Zr102   2.446       .  S
O84          C85   1.291       .  A
C85        C1826   1.459       .  S
O86         Zr98   2.531       .  S
O86          C88   1.305       .  A
O87        Zr101   2.361       .  S
O87          C88   1.277       .  A
C88        C1861   1.487       .  S
O89         Zr98   2.414       .  S
O89          C91   1.285       .  A
O90        Zr102   2.445       .  S
O90          C91   1.292       .  A
C91        C1938   1.480       .  S
O92         Zr95   2.381       .  S
O92          C94   1.261       .  A
O93        Zr101   2.500       .  S
O93          C94   1.290       .  A
C94        C1874   1.494       .  S
Zr95         O96   2.435       .  S
Zr95         O97   2.431       .  S
Zr95        O103   2.365       .  S
Zr95        O104   2.374       .  S
Zr95        O107   2.382       .  S
Zr95        O105   2.338       .  S
O96         H116   0.990       .  S
O96         H121   0.990       .  S
O97         H117   0.990       .  S
Zr98         O99   2.435       .  S
Zr98        O100   2.434       .  S
Zr98        O104   2.331       .  S
Zr98        O103   2.407       .  S
Zr98        O108   2.393       .  S
Zr98        O106   2.348       .  S
O99         H115   0.990       .  S
O100        H114   0.990       .  S
O100        H124   0.990       .  S
Zr101       O104   2.373       .  S
Zr101       O106   2.383       .  S
Zr101       O107   2.395       .  S
Zr102       O103   2.410       .  S
Zr102       O105   2.366       .  S
Zr102       O108   2.404       .  S
O103        H111   0.966       .  S
O106        H110   0.966       .  S
O107        H112   0.966       .  S
O125       Zr137   2.437       .  S
O125        C127   1.287       .  A
O126       Zr163   2.400       .  S
O126        C127   1.281       .  A
C127       C1749   1.487       .  S
O128       Zr140   2.471       .  S
O128        C130   1.293       .  A
O129       Zr164   2.469       .  S
O129        C130   1.295       .  A
C130       C1717   1.525       .  S
O131       Zr140   2.432       .  S
O131        C133   1.287       .  A
O132       Zr163   2.473       .  S
O132        C133   1.296       .  A
C133       C1925   1.488       .  S
O134       Zr137   2.399       .  S
O134        C136   1.271       .  A
O135       Zr164   2.511       .  S
O135        C136   1.297       .  A
C136       C1698   1.510       .  S
Zr137       O138   2.435       .  S
Zr137       O139   2.438       .  S
Zr137       O143   2.352       .  S
Zr137       O144   2.394       .  S
Zr137       O167   2.373       .  S
Zr137       O169   2.372       .  S
O138        H181   0.990       .  S
O139        H180   0.990       .  S
O139        H184   0.990       .  S
Zr140       O141   2.436       .  S
Zr140       O142   2.435       .  S
Zr140       O144   2.363       .  S
Zr140       O143   2.375       .  S
Zr140       O168   2.375       .  S
Zr140       O170   2.359       .  S
O141        H182   0.989       .  S
O141        H185   0.989       .  S
O142        H175   0.990       .  S
O143       Zr163   2.381       .  S
O144       Zr164   2.404       .  S
O144        H171   0.962       .  S
O145       Zr157   2.408       .  S
O145        C147   1.280       .  A
O146       Zr164   2.455       .  S
O146        C147   1.292       .  A
C147       C1845   1.472       .  S
O148       Zr160   2.538       .  S
O148        C150   1.306       .  A
O149       Zr163   2.344       .  S
O149        C150   1.274       .  A
C150       C1781   1.480       .  S
O151       Zr160   2.420   1_565  S
O151        C153   1.285       .  A
O152       Zr164   2.447       .  S
O152        C153   1.293   1_545  A
C153       C1730   1.467       .  S
O154       Zr157   2.395       .  S
O154        C156   1.270       .  A
O155       Zr163   2.519       .  S
O155        C156   1.295       .  A
C156       C1762   1.486       .  S
Zr157       O158   2.437       .  S
Zr157       O159   2.435       .  S
Zr157       O165   2.366       .  S
Zr157       O166   2.375       .  S
Zr157       O169   2.371       .  S
Zr157       O167   2.332       .  S
O158        H178   0.989       .  S
O158        H183   0.989       .  S
O159        H179   0.990       .  S
Zr160       O161   2.431       .  S
Zr160       O162   2.434       .  S
Zr160       O166   2.327       .  S
Zr160       O165   2.418       .  S
Zr160       O170   2.386       .  S
Zr160       O168   2.346       .  S
O161        H177   0.988       .  S
O162        H176   0.990       .  S
O162        H186   0.990       .  S
Zr163       O166   2.365       .  S
Zr163       O168   2.389       .  S
Zr163       O169   2.394       .  S
Zr164       O165   2.412       .  S
Zr164       O167   2.384       .  S
Zr164       O170   2.409       .  S
O165        H173   0.965       .  S
O168        H172   0.966       .  S
O169        H174   0.966       .  S
O187       Zr199   2.387       .  S
O187        C189   1.275       .  A
O188       Zr225   2.540       .  S
O188        C189   1.308       .  A
C189       C1634   1.500       .  S
O190       Zr202   2.373       .  S
O190        C192   1.263       .  A
O191       Zr226   2.554       .  S
O191        C192   1.296       .  A
C192       C1669   1.530       .  S
O193       Zr202   2.396       .  S
O193        C195   1.278       .  A
O194       Zr225   2.438       .  S
O194        C195   1.289       .  A
C195       C1973   1.461       .  S
O196       Zr199   2.424       .  S
O196        C198   1.285       .  A
O197       Zr226   2.421       .  S
O197        C198   1.288       .  A
C198       C1733   1.470       .  S
Zr199       O200   2.434       .  S
Zr199       O201   2.436       .  S
Zr199       O205   2.374       .  S
Zr199       O206   2.358       .  S
Zr199       O229   2.349       .  S
Zr199       O231   2.391       .  S
O200        H243   0.990       .  S
O201        H242   0.989       .  S
O201        H246   0.988       .  S
Zr202       O203   2.434       .  S
Zr202       O204   2.433       .  S
Zr202       O206   2.374       .  S
Zr202       O205   2.349       .  S
Zr202       O230   2.344       .  S
Zr202       O232   2.384       .  S
O203        H244   0.990       .  S
O203        H247   0.990       .  S
O204        H237   0.990       .  S
O205       Zr225   2.383       .  S
O206       Zr226   2.392       .  S
O206        H233   0.966       .  S
O207       Zr219   2.397       .  S
O207        C209   1.279       .  A
O208       Zr226   2.457       .  S
O208        C209   1.293       .  A
C209       C1829   1.460       .  S
O210       Zr222   2.424       .  S
O210        C212   1.288       .  A
O211       Zr225   2.449       .  S
O211        C212   1.291       .  A
C212       C1746   1.497       .  S
O213       Zr222   2.568       .  S
O213        C215   1.313       .  A
O214       Zr226   2.342       .  S
O214        C215   1.273       .  A
C215       C1685   1.494       .  S
O216       Zr219   2.438       .  S
O216        C218   1.289       .  A
O217       Zr225   2.464       .  S
O217        C218   1.292       .  A
C218       C1653   1.503       .  S
Zr219       O220   2.436       .  S
Zr219       O221   2.435       .  S
Zr219       O227   2.378       .  S
Zr219       O228   2.343       .  S
Zr219       O231   2.362       .  S
Zr219       O229   2.373       .  S
O220        H240   0.990       .  S
O220        H245   0.990       .  S
O221        H241   0.990       .  S
Zr222       O223   2.435       .  S
Zr222       O224   2.435       .  S
Zr222       O228   2.388       .  S
Zr222       O227   2.324       .  S
Zr222       O232   2.337       .  S
Zr222       O230   2.412       .  S
O223        H239   0.990       .  S
O224        H238   0.990       .  S
O224        H248   0.989       .  S
Zr225       O228   2.410       .  S
Zr225       O230   2.405       .  S
Zr225       O231   2.388       .  S
Zr226       O227   2.396       .  S
Zr226       O229   2.389       .  S
Zr226       O232   2.367       .  S
O227        H235   0.965       .  S
O230        H234   0.961       .  S
O231        H236   0.966       .  S
O249       Zr261   2.408       .  S
O249        C251   1.271       .  A
O250       Zr287   2.515       .  S
O250        C251   1.296       .  A
C251       C1701   1.514       .  S
O252       Zr264   2.418       .  S
O252        C254   1.285   1_554  A
O253       Zr288   2.477       .  S
O253        C254   1.300       .  A
C254       C1602   1.488       .  S
O255       Zr264   2.516       .  S
O255        C257   1.301       .  A
O256       Zr287   2.361       .  S
O256        C257   1.278       .  A
C257       C1893   1.481       .  S
O258       Zr261   2.416   1_556  S
O258        C260   1.284       .  A
O259       Zr288   2.459       .  S
O259        C260   1.293       .  A
C260       C1573   1.491       .  S
Zr261       O262   2.433       .  S
Zr261       O263   2.437       .  S
Zr261       O267   2.372       .  S
Zr261       O268   2.348       .  S
Zr261       O291   2.349   1_554  S
Zr261       O293   2.385       .  S
O262        H305   0.988       .  S
O263        H304   0.990       .  S
O263        H308   0.990       .  S
Zr264       O265   2.434       .  S
Zr264       O266   2.435       .  S
Zr264       O268   2.408       .  S
Zr264       O267   2.342       .  S
Zr264       O292   2.341       .  S
Zr264       O294   2.392   1_554  S
O265        H306   0.986       .  S
O265        H309   0.990       .  S
O266        H299   0.990       .  S
O267       Zr287   2.371       .  S
O268       Zr288   2.402   1_554  S
O268        H295   0.965       .  S
O269       Zr281   2.381       .  S
O269        C271   1.263       .  A
O270       Zr288   2.569       .  S
O270        C271   1.313       .  A
C271       C1554   1.518       .  S
O272       Zr284   2.465       .  S
O272        C274   1.294   1_556  A
O273       Zr287   2.440       .  S
O273        C274   1.291       .  A
C274       C1618   1.485       .  S
O275       Zr284   2.499       .  S
O275        C277   1.299       .  A
O276       Zr288   2.439       .  S
O276        C277   1.290       .  A
C277       C1538   1.503       .  S
O278       Zr281   2.382       .  S
O278        C280   1.277   1_556  A
O279       Zr287   2.462       .  S
O279        C280   1.294       .  A
C280       C1586   1.470       .  S
Zr281       O282   2.457       .  S
Zr281       O283   2.447       .  S
Zr281       O289   2.383       .  S
Zr281       O290   2.337       .  S
Zr281       O293   2.352   1_556  S
Zr281       O291   2.371       .  S
O282        H302   0.987       .  S
O282        H307   0.989       .  S
O283        H303   0.990       .  S
Zr284       O285   2.436       .  S
Zr284       O286   2.435       .  S
Zr284       O290   2.385       .  S
Zr284       O289   2.382       .  S
Zr284       O294   2.351       .  S
Zr284       O292   2.379   1_556  S
O285        H301   0.990       .  S
O286        H300   0.990       .  S
O286        H310   0.990       .  S
Zr287       O290   2.372   1_554  S
Zr287       O292   2.405       .  S
Zr287       O293   2.367       .  S
Zr288       O289   2.389       .  S
Zr288       O291   2.371       .  S
Zr288       O294   2.418       .  S
O289        H297   0.966       .  S
O292        H296   0.965       .  S
O293        H298   0.966       .  S
O311       Zr323   2.387       .  S
O311        C313   1.267       .  A
O312       Zr349   2.542       .  S
O312        C313   1.300       .  A
C313       C1637   1.518       .  S
O314       Zr326   2.390       .  S
O314        C316   1.278   1_554  A
O315       Zr350   2.485       .  S
O315        C316   1.299       .  A
C316       C1589   1.473       .  S
O317       Zr326   2.494       .  S
O317        C319   1.296       .  A
O318       Zr349   2.370       .  S
O318        C319   1.281       .  A
C319       C1797   1.478       .  S
O320       Zr323   2.483   1_556  S
O320        C322   1.296       .  A
O321       Zr350   2.369       .  S
O321        C322   1.277       .  A
C322       C1506   1.469       .  S
Zr323       O324   2.434       .  S
Zr323       O325   2.437       .  S
Zr323       O329   2.387       .  S
Zr323       O330   2.362       .  S
Zr323       O353   2.295   1_554  S
Zr323       O355   2.414   1_554  S
O324        H367   0.990       .  S
O325        H366   0.990       .  S
O325        H370   0.990       .  S
Zr326       O327   2.436       .  S
Zr326       O328   2.435       .  S
Zr326       O330   2.410       .  S
Zr326       O329   2.330       .  S
Zr326       O354   2.348       .  S
Zr326       O356   2.389   1_554  S
O327        H368   0.989       .  S
O327        H371   0.990       .  S
O328        H361   0.990       .  S
O329       Zr349   2.370       .  S
O330       Zr350   2.393   1_554  S
O330        H357   0.963       .  S
O331       Zr343   2.402       .  S
O331        C333   1.272       .  A
O332       Zr350   2.516       .  S
O332        C333   1.304       .  A
C333       C1490   1.491       .  S
O334       Zr346   2.407       .  S
O334        C336   1.281       .  A
O335       Zr349   2.492       .  S
O335        C336   1.300   1_554  A
C336       C1525   1.483       .  S
O337       Zr346   2.459       .  S
O337        C339   1.290       .  A
O338       Zr350   2.419       .  S
O338        C339   1.285       .  A
C339       C1477   1.479       .  S
O340       Zr343   2.428       .  S
O340        C342   1.281       .  A
O341       Zr349   2.427       .  S
O341        C342   1.290   1_554  A
C342       C1605   1.486       .  S
Zr343       O344   2.439       .  S
Zr343       O345   2.433       .  S
Zr343       O351   2.397       .  S
Zr343       O352   2.351       .  S
Zr343       O355   2.370       .  S
Zr343       O353   2.355       .  S
O344        H364   0.990       .  S
O344        H369   0.989       .  S
O345        H365   0.990       .  S
Zr346       O347   2.435       .  S
Zr346       O348   2.434       .  S
Zr346       O352   2.379       .  S
Zr346       O351   2.364       .  S
Zr346       O356   2.360       .  S
Zr346       O354   2.385   1_556  S
O347        H363   0.990       .  S
O348        H362   0.990       .  S
O348        H372   0.990       .  S
Zr349       O352   2.389   1_554  S
Zr349       O354   2.387       .  S
Zr349       O355   2.403   1_554  S
Zr350       O351   2.400       .  S
Zr350       O353   2.354       .  S
Zr350       O356   2.391       .  S
O351        H359   0.966       .  S
O354        H358   0.965       .  S
O355        H360   0.966   1_556  S
O373       Zr385   2.381       .  S
O373        C375   1.265       .  A
O374       Zr411   2.521       .  S
O374       C2391   1.294   1_455  A
C375       O2390   1.294       .  A
C375       C1813   1.495       .  S
O376       Zr388   2.487   1_556  S
O376        C378   1.299       .  A
O377       Zr412   2.459       .  S
O377        C378   1.296   1_655  A
C378       C1442   1.506       .  S
O379       Zr388   2.593       .  S
O379        C381   1.314   1_565  A
O380       Zr411   2.358       .  S
O380        C381   1.268       .  A
C381       C1714   1.515       .  S
O382       Zr385   2.403   1_566  S
O382        C384   1.279       .  A
O383      Zr2428   2.490       .  S
O383        C384   1.299       .  A
C384       C1522   1.488       .  S
Zr385       O386   2.434   1_545  S
Zr385       O387   2.436       .  S
Zr385       O415   2.348   1_554  S
Zr385       O417   2.379       .  S
Zr385      O2407   2.379       .  S
Zr385      O2408   2.367   1_544  S
O386        H429   0.990       .  S
O387        H428   0.990       .  S
O387        H432   0.990       .  S
Zr388       O389   2.434       .  S
Zr388       O390   2.435       .  S
Zr388       O392   2.421   1_454  S
Zr388       O391   2.337   1_565  S
Zr388       O416   2.362   1_565  S
Zr388       O418   2.396   1_554  S
O389        H430   0.990       .  S
O389        H433   0.990       .  S
O390        H423   0.990       .  S
O391       Zr411   2.387       .  S
O391      Zr2401   2.379   1_455  S
O392       Zr412   2.417       .  S
O392      Zr2401   2.367   1_566  S
O392       H2435   0.966   1_556  S
O393      Zr2421   2.336       .  S
O393        C395   1.268       .  A
O394      Zr2428   2.540   1_545  S
O394        C395   1.310       .  A
C395       C1413   1.482       .  S
O396       Zr408   2.408       .  S
O396        C398   1.283       .  A
O397       Zr411   2.479       .  S
O397        C398   1.298   1_554  A
C398       C1570   1.489       .  S
O399       Zr408   2.439   1_565  S
O399        C401   1.288       .  A
O400       Zr412   2.491   1_455  S
O400        C401   1.298       .  A
C401       C1426   1.512       .  S
O402       Zr405   2.454   1_455  S
O402        C404   1.289   1_556  A
O403       Zr411   2.441       .  S
O403        C404   1.291       .  A
C404       C1458   1.500       .  S
Zr405      O2409   2.336       .  S
Zr405       O406   2.435   1_655  S
Zr405      O2423   2.432       .  S
Zr405       O413   2.398   1_655  S
Zr405       O414   2.330   1_655  S
Zr405      O2433   2.332   1_556  S
Zr405      O2431   2.385       .  S
O406        H426   0.990       .  S
O406       H2447   0.990       .  S
O407      Zr2421   2.432       .  S
O407        H427   0.990       .  S
Zr408       O409   2.434       .  S
Zr408       O410   2.436       .  S
Zr408       O414   2.370       .  S
Zr408       O413   2.360       .  S
Zr408       O418   2.348   1_545  S
Zr408       O416   2.364   1_556  S
O409        H425   0.990       .  S
O410        H424   0.990   1_545  S
O410        H434   0.990       .  S
Zr411       O414   2.369   1_554  S
Zr411       O416   2.404       .  S
Zr411      O2433   2.388   1_455  S
Zr412      O2399   2.490       .  S
Zr412      O2410   2.540   1_565  S
Zr412       O413   2.401   1_665  S
Zr412       O418   2.408   1_655  S
Zr412      O2431   2.387   1_565  S
O413        H421   0.966       .  S
O415      Zr2421   2.385       .  S
O415      Zr2428   2.387   1_545  S
O416        H420   0.966       .  S
O417      Zr2421   2.332   1_554  S
O417      Zr2427   2.388       .  S
O417        H422   0.965       .  S
H419       O2408   0.966   1_554  S
H431       O2422   0.990       .  S
O435       Zr447   2.374       .  S
O435        C437   1.273       .  A
O436      Zr2489   2.547       .  S
O436        C437   1.309       .  A
C437       C1650   1.496       .  S
O438       Zr450   2.426   1_556  S
O438       C2456   1.284       .  A
O439       Zr474   2.527       .  S
O439        C440   1.308       .  A
C440       O2454   1.284       .  A
C440       C1445   1.511       .  S
O441       Zr450   2.538       .  S
O441        C443   1.306       .  A
O442       Zr473   2.307       .  S
O442        C443   1.268       .  A
C443       C1906   1.467       .  S
O444       Zr447   2.392   1_556  S
O444        C446   1.278       .  A
O445       Zr474   2.444       .  S
O445        C446   1.288       .  A
C446       C1509   1.480       .  S
Zr447       O448   2.436       .  S
Zr447       O449   2.436       .  S
Zr447       O453   2.359       .  S
Zr447       O454   2.365   1_554  S
Zr447       O477   2.345   1_554  S
Zr447       O479   2.371       .  S
O448        H491   0.990       .  S
O449        H490   0.990       .  S
O449        H494   0.990       .  S
Zr450       O451   2.440       .  S
Zr450       O452   2.435       .  S
Zr450       O478   2.338       .  S
Zr450       O480   2.369   1_554  S
Zr450      O2470   2.424   1_554  S
Zr450      O2469   2.347       .  S
O451        H495   0.989       .  S
O451       H2508   0.989       .  S
O452        H485   0.990       .  S
O453      Zr2466   2.347   1_455  S
O453      Zr2489   2.353       .  S
O454       Zr474   2.408       .  S
O454      Zr2466   2.424   1_456  S
O454        H481   0.966       .  S
O455       Zr467   2.357       .  S
O455        C457   1.271       .  A
O456       Zr474   2.553       .  S
O456        C457   1.314       .  A
C457       C1397   1.492       .  S
O458       Zr470   2.426       .  S
O458        C460   1.285   1_556  A
O459       Zr473   2.483       .  S
O459        C460   1.298       .  A
C460       C1621   1.487       .  S
O461       Zr470   2.483       .  S
O461        C463   1.294       .  A
O462       Zr474   2.412   1_655  S
O462       C2479   1.287       .  A
C463       O2478   1.287       .  A
C463       C1378   1.512       .  S
O464       Zr467   2.428       .  S
O464        C466   1.284   1_556  A
O465       Zr473   2.433       .  S
O465       C2482   1.287       .  A
C466       O2481   1.287       .  A
C466       C1461   1.473       .  S
Zr467       O468   2.432       .  S
Zr467       O469   2.435       .  S
Zr467       O475   2.404       .  S
Zr467       O479   2.360   1_556  S
Zr467       O477   2.381       .  S
Zr467      O2492   2.340   1_455  S
O468        H488   0.989       .  S
O468        H493   0.990       .  S
O469        H489   0.990       .  S
Zr470       O471   2.435       .  S
Zr470       O472   2.429       .  S
Zr470       O476   2.385       .  S
Zr470       O480   2.347       .  S
Zr470       O478   2.377   1_556  S
Zr470      O2491   2.347       .  S
O471        H487   0.990       .  S
O472        H486   0.989       .  S
O472        H496   0.990       .  S
Zr473      O2452   2.547       .  S
Zr473       O476   2.380   1_554  S
Zr473       O478   2.408       .  S
Zr473      O2469   2.353       .  S
Zr473      O2495   2.371       .  S
Zr474       O475   2.402       .  S
Zr474       O477   2.389       .  S
Zr474      O2496   2.401   1_455  S
O475      Zr2486   2.347   1_455  S
O475        H483   0.964       .  S
O476      Zr2483   2.340       .  S
O478        H482   0.964       .  S
O479      Zr2489   2.371       .  S
O479        H484   0.966       .  S
O480      Zr2490   2.401       .  S
H492       O2467   0.989       .  S
O497       Zr509   2.567       .  S
O497        C499   1.312       .  A
O498       Zr535   2.343       .  S
O498        C499   1.275       .  A
C499       C1541   1.521       .  S
O500       Zr512   2.450       .  S
O500        C502   1.288       .  A
O501       Zr536   2.398       .  S
O501        C502   1.281       .  A
C502       C1314   1.477       .  S
O503       Zr512   2.382       .  S
O503        C505   1.264       .  A
O504       Zr535   2.521       .  S
O504        C505   1.295       .  A
C505       C1410   1.509       .  S
O506       Zr509   2.433       .  S
O506        C508   1.289       .  A
O507       Zr536   2.418       .  S
O507        C508   1.286       .  A
C508       C1330   1.471   1_545  S
Zr509       O510   2.434       .  S
Zr509       O511   2.435       .  S
Zr509       O515   2.332       .  S
Zr509       O516   2.414       .  S
Zr509       O539   2.400       .  S
Zr509       O541   2.342       .  S
O510        H553   0.990       .  S
O511        H552   0.990       .  S
O511        H556   0.990       .  S
Zr512       O513   2.434       .  S
Zr512       O514   2.434       .  S
Zr512       O516   2.355       .  S
Zr512       O515   2.386       .  S
Zr512       O540   2.403       .  S
Zr512       O542   2.313       .  S
O513        H554   0.989       .  S
O513        H557   0.989       .  S
O514        H547   0.990       .  S
O515       Zr535   2.365       .  S
O516       Zr536   2.389       .  S
O516        H543   0.966       .  S
O517       Zr529   2.506       .  S
O517        C519   1.300       .  A
O518       Zr536   2.438       .  S
O518        C519   1.288       .  A
C519       C1282   1.521       .  S
O520       Zr532   2.408       .  S
O520        C522   1.277       .  A
O521       Zr535   2.412       .  S
O521        C522   1.286       .  A
C522       C1346   1.474       .  S
O523       Zr532   2.373       .  S
O523        C525   1.271       .  A
O524       Zr536   2.497       .  S
O524        C525   1.305       .  A
C525       C1298   1.479       .  S
O526       Zr529   2.424       .  S
O526        C528   1.287       .  A
O527       Zr535   2.435       .  S
O527        C528   1.290       .  A
C528       C1365   1.465       .  S
Zr529       O530   2.436       .  S
Zr529       O531   2.433       .  S
Zr529       O537   2.368       .  S
Zr529       O538   2.389       .  S
Zr529       O541   2.402       .  S
Zr529       O539   2.347       .  S
O530        H550   0.990       .  S
O530        H555   0.990       .  S
O531        H551   0.990       .  S
Zr532       O533   2.435       .  S
Zr532       O534   2.434       .  S
Zr532       O538   2.336       .  S
Zr532       O537   2.388       .  S
Zr532       O542   2.362       .  S
Zr532       O540   2.364       .  S
O533        H549   0.990       .  S
O534        H548   0.990       .  S
O534        H558   0.990       .  S
Zr535       O538   2.390       .  S
Zr535       O540   2.378       .  S
Zr535       O541   2.397       .  S
Zr536       O537   2.383       .  S
Zr536       O539   2.395       .  S
Zr536       O542   2.339       .  S
O537        H545   0.966       .  S
O540        H544   0.966       .  S
O541        H546   0.965       .  S
O559       Zr571   2.508       .  S
O559        C561   1.299       .  A
O560       Zr597   2.373       .  S
O560        C561   1.278       .  A
C561       C1474   1.484       .  S
O562       Zr574   2.434       .  S
O562        C564   1.286       .  A
O563       Zr598   2.408       .  S
O563        C564   1.282       .  A
C564       C3266   1.465       .  S
O565       Zr574   2.401       .  S
O565        C567   1.275       .  A
O566       Zr597   2.477       .  S
O566        C567   1.294       .  A
C567       C1381   1.489       .  S
O568       Zr571   2.394       .  S
O568        C570   1.278       .  A
O569       Zr598   2.440       .  S
O569        C570   1.292       .  A
C570       C1349   1.466       .  S
Zr571       O572   2.434       .  S
Zr571       O573   2.436       .  S
Zr571       O577   2.339       .  S
Zr571       O578   2.406       .  S
Zr571       O601   2.388       .  S
Zr571       O603   2.344       .  S
O572        H615   0.990       .  S
O573        H614   0.990       .  S
O573        H618   0.990       .  S
Zr574       O575   2.436       .  S
Zr574       O576   2.434       .  S
Zr574       O578   2.356       .  S
Zr574       O577   2.382       .  S
Zr574       O602   2.373       .  S
Zr574       O604   2.361       .  S
O575        H616   0.990       .  S
O575        H619   0.990       .  S
O576        H609   0.990       .  S
O577       Zr597   2.367       .  S
O578       Zr598   2.404       .  S
O578        H605   0.966       .  S
O579       Zr591   2.519       .  S
O579        C581   1.302       .  A
O580       Zr598   2.422       .  S
O580        C581   1.286       .  A
C581       C1221   1.526       .  S
O582       Zr594   2.432       .  S
O582        C584   1.287       .  A
O583       Zr597   2.396       .  S
O583        C584   1.279       .  A
C584       C1333   1.473       .  S
O585       Zr594   2.350       .  S
O585        C587   1.270       .  A
O586       Zr598   2.502       .  S
O586        C587   1.301       .  A
C587       C1234   1.472       .  S
O588       Zr591   2.419       .  S
O588        C590   1.287       .  A
O589       Zr597   2.421       .  S
O589        C590   1.286       .  A
C590       C1266   1.472       .  S
Zr591       O592   2.437       .  S
Zr591       O593   2.433       .  S
Zr591       O599   2.353       .  S
Zr591       O600   2.394       .  S
Zr591       O603   2.389       .  S
Zr591       O601   2.332       .  S
O592        H612   0.990       .  S
O592        H617   0.990       .  S
O593        H613   0.990       .  S
Zr594       O595   2.434       .  S
Zr594       O596   2.437       .  S
Zr594       O600   2.332       .  S
Zr594       O599   2.396       .  S
Zr594       O604   2.380       .  S
Zr594       O602   2.345       .  S
O595        H611   0.990       .  S
O596        H610   0.990       .  S
O596        H620   0.990       .  S
Zr597       O600   2.381       .  S
Zr597       O602   2.373       .  S
Zr597       O603   2.395       .  S
Zr598       O599   2.377       .  S
Zr598       O601   2.388       .  S
Zr598       O604   2.378       .  S
O599        H607   0.965       .  S
O602        H606   0.965       .  S
O603        H608   0.965       .  S
O621       Zr633   2.640       .  S
O621        C623   1.327       .  A
O622       Zr659   2.297       .  S
O622        C623   1.265       .  A
C623       C1394   1.515       .  S
O624       Zr636   2.401       .  S
O624        C626   1.278       .  A
O625       Zr660   2.418       .  S
O625        C626   1.285       .  A
C626       C1362   1.467       .  S
O627       Zr636   2.365       .  S
O627        C629   1.261       .  A
O628       Zr659   2.588       .  S
O628        C629   1.307       .  A
C629       C1557   1.502       .  S
O630       Zr633   2.428       .  S
O630        C632   1.287       .  A
O631       Zr660   2.427       .  S
O631        C632   1.289       .  A
C632       C1205   1.463       .  S
Zr633       O634   2.435       .  S
Zr633       O635   2.435       .  S
Zr633       O639   2.309       .  S
Zr633       O640   2.453       .  S
Zr633       O663   2.404       .  S
Zr633       O665   2.313       .  S
O634        H677   0.990       .  S
O635        H676   0.990       .  S
O635        H680   0.990       .  S
Zr636       O637   2.448       .  S
Zr636       O638   2.437       .  S
Zr636       O640   2.370       .  S
Zr636       O639   2.389       .  S
Zr636       O664   2.376       .  S
Zr636       O666   2.320       .  S
O637        H678   0.990       .  S
O637        H681   0.988       .  S
O638        H671   0.990       .  S
O639       Zr659   2.313       .  S
O640       Zr660   2.404       .  S
O640        H667   0.965       .  S
O641       Zr653   2.537       .  S
O641        C643   1.304       .  A
O642       Zr660   2.422       .  S
O642        C643   1.285       .  A
C643       C1170   1.525       .  S
O644       Zr656   2.456       .  S
O644        C646   1.291       .  A
O645       Zr659   2.396       .  S
O645        C646   1.279       .  A
C646       C1186   1.492       .  S
O647       Zr656   2.401       .  S
O647        C649   1.272       .  A
O648       Zr660   2.495       .  S
O648        C649   1.295       .  A
C649       C1154   1.476       .  S
O650       Zr653   2.434       .  S
O650        C652   1.288       .  A
O651       Zr659   2.441       .  S
O651        C652   1.290       .  A
C652       C1253   1.467       .  S
Zr653       O654   2.435       .  S
Zr653       O655   2.436       .  S
Zr653       O661   2.361       .  S
Zr653       O662   2.402       .  S
Zr653       O665   2.401       .  S
Zr653       O663   2.347       .  S
O654        H674   0.990       .  S
O654        H679   0.990       .  S
O655        H675   0.990       .  S
Zr656       O657   2.436       .  S
Zr656       O658   2.439       .  S
Zr656       O662   2.342       .  S
Zr656       O661   2.406       .  S
Zr656       O666   2.379       .  S
Zr656       O664   2.373       .  S
O657        H673   0.990       .  S
O658        H672   0.990       .  S
O658        H682   0.988       .  S
Zr659       O662   2.387       .  S
Zr659       O664   2.369       .  S
Zr659       O665   2.393       .  S
Zr660       O661   2.393       .  S
Zr660       O663   2.405       .  S
Zr660       O666   2.373       .  S
O661        H669   0.966       .  S
O664        H668   0.965       .  S
O665        H670   0.964       .  S
O683       Zr695   2.598       .  S
O683        C685   1.316       .  A
O684       Zr721   2.323       .  S
O684        C685   1.272       .  A
C685       C1429   1.526       .  S
O686       Zr698   2.423       .  S
O686        C688   1.281       .  A
O687       Zr722   2.406       .  S
O687        C688   1.280       .  A
C688       C1269   1.471       .  S
O689       Zr698   2.430       .  S
O689        C691   1.274       .  A
O690       Zr721   2.569       .  S
O690        C691   1.310       .  A
C691       C1493   1.511       .  S
O692       Zr695   2.422       .  S
O692        C694   1.287       .  A
O693       Zr722   2.455       .  S
O693        C694   1.292       .  A
C694       C1189   1.497       .  S
Zr695       O696   2.434       .  S
Zr695       O697   2.435       .  S
Zr695       O701   2.309       .  S
Zr695       O702   2.454       .  S
Zr695       O725   2.396       .  S
Zr695       O727   2.347       .  S
O696        H739   0.990       .  S
O697        H738   0.990       .  S
O697        H742   0.990       .  S
Zr698       O699   2.453       .  S
Zr698       O700   2.439   1_565  S
Zr698       O702   2.414       .  S
Zr698       O701   2.371       .  S
Zr698       O726   2.356   1_565  S
Zr698       O728   2.324       .  S
O699        H740   0.989       .  S
O699        H743   0.989       .  S
O700        H733   0.991       .  S
O701       Zr721   2.296       .  S
O702       Zr722   2.383       .  S
O702        H729   0.965       .  S
O703       Zr715   2.508       .  S
O703        C705   1.304       .  A
O704       Zr722   2.378       .  S
O704        C705   1.274       .  A
C705       C1138   1.506       .  S
O706       Zr718   2.427       .  S
O706        C708   1.287       .  A
O707       Zr721   2.408   1_545  S
O707        C708   1.284       .  A
C708       C1202   1.466       .  S
O709       Zr718   2.364       .  S
O709        C711   1.274   1_545  A
O710       Zr722   2.478       .  S
O710        C711   1.296       .  A
C711       C1122   1.474       .  S
O712       Zr715   2.437       .  S
O712        C714   1.289   1_565  A
O713       Zr721   2.437   1_545  S
O713        C714   1.289       .  A
C714       C1317   1.476       .  S
Zr715       O716   2.437       .  S
Zr715       O717   2.434       .  S
Zr715       O723   2.350       .  S
Zr715       O724   2.383   1_565  S
Zr715       O727   2.388       .  S
Zr715       O725   2.349       .  S
O716        H736   0.990   1_565  S
O716        H741   0.990       .  S
O717        H737   0.990       .  S
Zr718       O719   2.434       .  S
Zr718       O720   2.441       .  S
Zr718       O724   2.330       .  S
Zr718       O723   2.389   1_545  S
Zr718       O728   2.380   1_545  S
Zr718       O726   2.371       .  S
O719        H735   0.990       .  S
O720        H734   0.990       .  S
O720        H744   0.990       .  S
Zr721       O724   2.383   1_565  S
Zr721       O726   2.380   1_565  S
Zr721       O727   2.393       .  S
Zr722       O723   2.388       .  S
Zr722       O725   2.399       .  S
Zr722       O728   2.374       .  S
O723        H731   0.966       .  S
O726        H730   0.965       .  S
O727        H732   0.966       .  S
O745       Zr757   2.395       .  S
O745        C747   1.269       .  A
O746       Zr783   2.509       .  S
O746        C747   1.293   1_565  A
C747       C1765   1.508       .  S
O748       Zr760   2.395       .  S
O748        C750   1.280       .  A
O749       Zr784   2.433       .  S
O749        C750   1.288       .  A
C750       C1106   1.461       .  S
O751       Zr760   2.474   1_565  S
O751        C753   1.293       .  A
O752       Zr783   2.441       .  S
O752        C753   1.290       .  A
C753       C1858   1.514       .  S
O754       Zr757   2.443       .  S
O754        C756   1.286       .  A
O755       Zr784   2.385       .  S
O755        C756   1.280       .  A
C756       C1090   1.475       .  S
Zr757       O758   2.434       .  S
Zr757       O759   2.447       .  S
Zr757       O763   2.395       .  S
Zr757       O764   2.355       .  S
Zr757       O787   2.344       .  S
Zr757       O789   2.387       .  S
O758        H801   0.990       .  S
O759        H800   0.989       .  S
O759        H804   0.990       .  S
Zr760       O761   2.434       .  S
Zr760       O762   2.433       .  S
Zr760       O764   2.394       .  S
Zr760       O763   2.351       .  S
Zr760       O788   2.348   1_545  S
Zr760       O790   2.389       .  S
O761        H802   0.990       .  S
O761        H805   0.990       .  S
O762        H795   0.990   1_545  S
O763       Zr783   2.384   1_545  S
O764       Zr784   2.379       .  S
O764        H791   0.966       .  S
O765       Zr777   2.393       .  S
O765        C767   1.264       .  A
O766       Zr784   2.459       .  S
O766        C767   1.279       .  A
C767       C1125   1.478       .  S
O768       Zr780   2.451       .  S
O768        C770   1.291       .  A
O769       Zr783   2.428       .  S
O769        C770   1.289       .  A
C770       C1074   1.466       .  S
O771       Zr780   2.583       .  S
O771        C773   1.316   1_565  A
O772       Zr784   2.348       .  S
O772        C773   1.271       .  A
C773       C1285   1.510       .  S
O774       Zr777   2.420   1_565  S
O774        C776   1.282       .  A
O775       Zr783   2.426       .  S
O775        C776   1.286       .  A
C776       C1058   1.469       .  S
Zr777       O778   2.441   1_545  S
Zr777       O779   2.435       .  S
Zr777       O785   2.387       .  S
Zr777       O786   2.348   1_545  S
Zr777       O789   2.361       .  S
Zr777       O787   2.391       .  S
O778        H798   0.988       .  S
O778        H803   0.989       .  S
O779        H799   0.990       .  S
Zr780       O781   2.436       .  S
Zr780       O782   2.434       .  S
Zr780       O786   2.417       .  S
Zr780       O785   2.328   1_565  S
Zr780       O790   2.350   1_565  S
Zr780       O788   2.404       .  S
O781        H797   0.990       .  S
O782        H796   0.990       .  S
O782        H806   0.990       .  S
Zr783       O786   2.405       .  S
Zr783       O788   2.413       .  S
Zr783       O789   2.391   1_565  S
Zr784       O785   2.397       .  S
Zr784       O787   2.375       .  S
Zr784       O790   2.384       .  S
O785        H793   0.959   1_545  S
O788        H792   0.966       .  S
O789        H794   0.964       .  S
O807       Zr819   2.353       .  S
O807        C809   1.271       .  A
O808       Zr845   2.507       .  S
O808        C809   1.302       .  A
C809       C1666   1.481       .  S
O810       Zr822   2.397       .  S
O810        C812   1.279       .  A
O811       Zr846   2.427       .  S
O811        C812   1.289       .  A
C812       C1045   1.458       .  S
O813       Zr822   2.496       .  S
O813        C815   1.296       .  A
O814       Zr845   2.429       .  S
O814        C815   1.286       .  A
C815       C1986   1.504       .  S
O816       Zr819   2.430       .  S
O816        C818   1.284       .  A
O817       Zr846   2.400       .  S
O817        C818   1.279       .  A
C818       C1077   1.460       .  S
Zr819       O820   2.432       .  S
Zr819       O821   2.438       .  S
Zr819       O825   2.393       .  S
Zr819       O826   2.345       .  S
Zr819       O849   2.342       .  S
Zr819       O851   2.385       .  S
O820        H863   0.990       .  S
O821        H862   0.990       .  S
O821        H866   0.990       .  S
Zr822       O823   2.434       .  S
Zr822       O824   2.433       .  S
Zr822       O826   2.402       .  S
Zr822       O825   2.363       .  S
Zr822       O850   2.331       .  S
Zr822       O852   2.398       .  S
O823        H864   0.990       .  S
O823        H867   0.990       .  S
O824        H857   0.990       .  S
O825       Zr845   2.369       .  S
O826       Zr846   2.382       .  S
O826        H853   0.966       .  S
O827       Zr839   2.402       .  S
O827        C829   1.267       .  A
O828       Zr846   2.468       .  S
O828        C829   1.282       .  A
C829       C1157   1.491       .  S
O830       Zr842   2.456       .  S
O830        C832   1.292       .  A
O831       Zr845   2.405       .  S
O831        C832   1.286       .  A
C832       C1093   1.474       .  S
O833       Zr842   2.589       .  S
O833        C835   1.316       .  A
O834       Zr846   2.331       .  S
O834        C835   1.269       .  A
C835       C1218   1.504       .  S
O836       Zr839   2.417       .  S
O836        C838   1.280       .  A
O837       Zr845   2.405       .  S
O837        C838   1.282       .  A
C838       C1026   1.457       .  S
Zr839       O840   2.431       .  S
Zr839       O841   2.430       .  S
Zr839       O847   2.373       .  S
Zr839       O848   2.355       .  S
Zr839       O851   2.358       .  S
Zr839       O849   2.385       .  S
O840        H860   0.990       .  S
O840        H865   0.990       .  S
O841        H861   0.990       .  S
Zr842       O843   2.431       .  S
Zr842       O844   2.434       .  S
Zr842       O848   2.416       .  S
Zr842       O847   2.319       .  S
Zr842       O852   2.350       .  S
Zr842       O850   2.402       .  S
O843        H859   0.990       .  S
O844        H858   0.990       .  S
O844        H868   0.990       .  S
Zr845       O848   2.402       .  S
Zr845       O850   2.402       .  S
Zr845       O851   2.375       .  S
Zr846       O847   2.395       .  S
Zr846       O849   2.378       .  S
Zr846       O852   2.393       .  S
O847        H855   0.961       .  S
O850        H854   0.965       .  S
O851        H856   0.966       .  S
O869      Zr2897   2.348       .  S
O869        C871   1.270       .  A
O870      Zr2923   2.492       .  S
O870        C871   1.299       .  A
C871       C2005   1.462       .  S
O872       Zr884   2.411       .  S
O872        C874   1.282       .  A
O873       Zr908   2.432       .  S
O873        C874   1.288       .  A
C874       C1029   1.454       .  S
O875       Zr884   2.499       .  S
O875        C877   1.297       .  A
O876       Zr907   2.418       .  S
O876        C877   1.286       .  A
C877       C1778   1.506       .  S
O878       Zr881   2.413       .  S
O878        C880   1.279       .  A
O879       Zr908   2.408       .  S
O879        C880   1.283       .  A
C880        C994   1.476       .  S
Zr881      O2885   2.348   1_455  S
Zr881       O882   2.435       .  S
Zr881      O2899   2.437   1_455  S
Zr881       O887   2.391       .  S
Zr881       O888   2.332       .  S
Zr881      O2927   2.359       .  S
Zr881      O2929   2.361   1_455  S
O882        H925   0.989       .  S
O883      Zr2897   2.437       .  S
O883        H924   0.990       .  S
O883        H928   0.990       .  S
Zr884       O885   2.433       .  S
Zr884       O886   2.429       .  S
Zr884       O888   2.396       .  S
Zr884       O887   2.363       .  S
Zr884       O912   2.343       .  S
Zr884       O914   2.394       .  S
O885        H926   0.990       .  S
O885        H929   0.990       .  S
O886        H919   0.990       .  S
O887       Zr907   2.378       .  S
O888       Zr908   2.387       .  S
O888        H915   0.966       .  S
O889       Zr901   2.386       .  S
O889        C891   1.270       .  A
O890       Zr908   2.526       .  S
O890       C2907   1.304       .  A
C891       O2906   1.304       .  A
C891       C1301   1.490       .  S
O892       Zr904   2.476       .  S
O892        C894   1.298       .  A
O893       Zr907   2.403       .  S
O893        C894   1.283       .  A
C894       C1010   1.483       .  S
O895       Zr904   2.616       .  S
O895        C897   1.323       .  A
O896       Zr908   2.306       .  S
O896        C897   1.266       .  A
C897       C1173   1.510       .  S
O898       Zr901   2.399       .  S
O898        C900   1.280       .  A
O899      Zr2923   2.434       .  S
O899        C900   1.286       .  A
C900       C1109   1.467       .  S
Zr901       O902   2.463       .  S
Zr901       O903   2.435       .  S
Zr901       O913   2.332       .  S
Zr901       O911   2.391       .  S
Zr901      O2925   2.377       .  S
Zr901      O2926   2.330       .  S
O902        H922   0.986       .  S
O902        H927   0.990       .  S
O903        H923   0.990       .  S
Zr904       O905   2.437       .  S
Zr904       O906   2.434       .  S
Zr904       O910   2.411       .  S
Zr904       O909   2.312       .  S
Zr904       O914   2.334       .  S
Zr904       O912   2.390       .  S
O905        H921   0.990       .  S
O906        H920   0.990       .  S
O906        H930   0.990       .  S
Zr907      O2886   2.492   1_455  S
Zr907      O2915   2.433   1_455  S
Zr907       O910   2.392       .  S
Zr907       O912   2.417       .  S
Zr907      O2929   2.377   1_455  S
Zr908       O909   2.361       .  S
Zr908       O914   2.401       .  S
Zr908      O2927   2.365       .  S
O909      Zr2917   2.377   1_455  S
O909        H917   0.953       .  S
O910      Zr2917   2.330   1_455  S
O911      Zr2897   2.359       .  S
O911      Zr2924   2.365       .  S
O912        H916   0.964       .  S
O913      Zr2897   2.361       .  S
O913      Zr2923   2.377       .  S
O913        H918   0.964       .  S
O931      Zr2959   2.380       .  S
O931        C933   1.269       .  A
O932      Zr2985   2.509       .  S
O932        C933   1.300       .  A
C933       C1877   1.473       .  S
O934       Zr946   2.407       .  S
O934        C936   1.282       .  A
O935       Zr970   2.442       .  S
O935        C936   1.290       .  A
C936       C1061   1.467       .  S
O937       Zr946   2.506       .  S
O937        C939   1.299       .  A
O938       Zr969   2.415       .  S
O938        C939   1.284       .  A
C939       C1682   1.514       .  S
O940       Zr943   2.459       .  S
O940        C942   1.291       .  A
O941       Zr970   2.380       .  S
O941        C942   1.276       .  A
C942       C1013   1.479       .  S
Zr943      O2947   2.380   1_455  S
Zr943       O944   2.428       .  S
Zr943      O2961   2.439   1_455  S
Zr943       O949   2.400       .  S
Zr943       O950   2.347       .  S
Zr943       O973   2.338       .  S
Zr943      O2991   2.395   1_455  S
O944        H987   0.989       .  S
O945      Zr2959   2.439       .  S
O945        H986   0.990       .  S
O945        H990   0.990       .  S
Zr946       O947   2.433       .  S
Zr946       O948   2.432       .  S
Zr946       O950   2.404       .  S
Zr946       O949   2.358       .  S
Zr946       O974   2.341       .  S
Zr946       O976   2.389       .  S
O947        H988   0.990       .  S
O947        H991   0.990       .  S
O948        H981   0.990       .  S
O949       Zr969   2.378       .  S
O950       Zr970   2.384       .  S
O950        H977   0.966       .  S
O951       Zr963   2.363       .  S
O951       C2969   1.259       .  A
O952       Zr970   2.495       .  S
O952        C953   1.278   1_455  A
C953       O2967   1.259       .  A
C953       C3253   1.507       .  S
O954       Zr966   2.446       .  S
O954        C956   1.290       .  A
O955       Zr969   2.416       .  S
O955        C956   1.289       .  A
C956        C997   1.472       .  S
O957       Zr966   2.611       .  S
O957        C959   1.319       .  A
O958       Zr970   2.334       .  S
O958        C959   1.257       .  A
C959       C1141   1.516       .  S
O960       Zr963   2.396       .  S
O960        C962   1.277       .  A
O961      Zr2985   2.417       .  S
O961        C962   1.284       .  A
C962       C1042   1.454       .  S
Zr963       O964   2.434       .  S
Zr963       O965   2.429       .  S
Zr963       O975   2.330       .  S
Zr963      O2987   2.381       .  S
Zr963      O2988   2.340       .  S
Zr963      O2989   2.394       .  S
O964        H984   0.985       .  S
O964        H989   0.988       .  S
O965        H985   0.990       .  S
Zr966       O967   2.433       .  S
Zr966       O968   2.434       .  S
Zr966       O972   2.420       .  S
Zr966       O971   2.313       .  S
Zr966       O976   2.330       .  S
Zr966       O974   2.413       .  S
O967        H983   0.990       .  S
O968        H982   0.990       .  S
O968        H992   0.990       .  S
Zr969      O2948   2.509   1_455  S
Zr969      O2977   2.417   1_455  S
Zr969       O972   2.400       .  S
Zr969       O974   2.409       .  S
Zr969      O2991   2.372   1_455  S
Zr970       O971   2.409       .  S
Zr970       O973   2.377       .  S
Zr970       O976   2.380       .  S
O971      Zr2979   2.381   1_455  S
O971        H979   0.959       .  S
O972      Zr2979   2.340   1_455  S
O973      Zr2979   2.394   1_455  S
O974        H978   0.965       .  S
O975      Zr2959   2.395       .  S
O975      Zr2985   2.372       .  S
O975        H980   0.962       .  S
C993        C994   1.405       .  A
C993        C998   1.405       .  A
C993       H1000   1.083       .  S
C994        C995   1.423       .  A
C995        C996   1.397       .  A
C995       C1002   1.523       .  S
C996        C997   1.400       .  A
C996       H1001   1.084       .  S
C997        C998   1.416       .  A
C998        C999   1.517       .  S
C999       F1003   1.385       .  S
C999       F1004   1.383       .  S
C999       F1005   1.382       .  S
C1002      F1007   1.384       .  S
C1002      F1008   1.385       .  S
C1002      F3022   1.383       .  S
F1006      C3018   1.383       .  S
C1009      C1010   1.400       .  A
C1009      C1014   1.402   1_545  A
C1009      H1016   1.084       .  S
C1010      C1011   1.425       .  A
C1011      C1012   1.403       .  A
C1011      C1018   1.519       .  S
C1012      C1013   1.400   1_545  A
C1012      H1017   1.083   1_545  S
C1013      C1014   1.421       .  A
C1014      C1015   1.515       .  S
C1015      F1019   1.385       .  S
C1015      F1020   1.379       .  S
C1015      F1021   1.384       .  S
C1018      F1022   1.378       .  S
C1018      F3039   1.381       .  S
C1018      F3040   1.385       .  S
F1023      C3034   1.381       .  S
F1024      C3034   1.385       .  S
C1025      C1026   1.401       .  A
C1025      C1030   1.400       .  A
C1025      H1032   1.084       .  S
C1026      C1027   1.412       .  A
C1027      C1028   1.399       .  A
C1027      C1034   1.517       .  S
C1028      C1029   1.399       .  A
C1028      H1033   1.084       .  S
C1029      C1030   1.414       .  A
C1030      C1031   1.519       .  S
C1031      F1035   1.385       .  S
C1031      F1036   1.380       .  S
C1031      F1037   1.381       .  S
C1034      F1038   1.383       .  S
C1034      F1039   1.380       .  S
C1034      F1040   1.385       .  S
C1041      C1042   1.400       .  A
C1041      C1046   1.401       .  A
C1041      H1048   1.084       .  S
C1042      C1043   1.419       .  A
C1043      C1044   1.391       .  A
C1043      C1050   1.520       .  S
C1044      C1045   1.396       .  A
C1044      H1049   1.086       .  S
C1045      C1046   1.418       .  A
C1046      C1047   1.519       .  S
C1047      F1051   1.385       .  S
C1047      F1052   1.381       .  S
C1047      F1053   1.383       .  S
C1050      F1054   1.384       .  S
C1050      F1055   1.378       .  S
C1050      F1056   1.383       .  S
C1057      C1058   1.406       .  A
C1057      C1062   1.403       .  A
C1057      H1064   1.084       .  S
C1058      C1059   1.413       .  A
C1059      C1060   1.403       .  A
C1059      C1066   1.520       .  S
C1060      C1061   1.406       .  A
C1060      H1065   1.084       .  S
C1061      C1062   1.410       .  A
C1062      C1063   1.519       .  S
C1063      F1067   1.384   1_565  S
C1063      F1068   1.383       .  S
C1063      F1069   1.384       .  S
C1066      F1070   1.383       .  S
C1066      F1071   1.383       .  S
C1066      F1072   1.385       .  S
C1073      C1074   1.401       .  A
C1073      C1078   1.405       .  A
C1073      H1080   1.083       .  S
C1074      C1075   1.414       .  A
C1075      C1076   1.400       .  A
C1075      C1082   1.513       .  S
C1076      C1077   1.397       .  A
C1076      H1081   1.084       .  S
C1077      C1078   1.414       .  A
C1078      C1079   1.517       .  S
C1079      F1083   1.384       .  S
C1079      F1084   1.383       .  S
C1079      F1085   1.383       .  S
C1082      F1086   1.383       .  S
C1082      F1087   1.378       .  S
C1082      F1088   1.384       .  S
C1089      C1090   1.407       .  A
C1089      C1094   1.401       .  A
C1089      H1096   1.083       .  S
C1090      C1091   1.416       .  A
C1091      C1092   1.401       .  A
C1091      C1098   1.520       .  S
C1092      C1093   1.407       .  A
C1092      H1097   1.083       .  S
C1093      C1094   1.414       .  A
C1094      C1095   1.519       .  S
C1095      F1099   1.385       .  S
C1095      F1100   1.383       .  S
C1095      F1101   1.382       .  S
C1098      F1102   1.382       .  S
C1098      F1103   1.382       .  S
C1098      F1104   1.385       .  S
C1105      C1106   1.402       .  A
C1105      C1110   1.399       .  A
C1105      H1112   1.084       .  S
C1106      C1107   1.410       .  A
C1107      C1108   1.401       .  A
C1107      C1114   1.517       .  S
C1108      C1109   1.406       .  A
C1108      H1113   1.084       .  S
C1109      C1110   1.417       .  A
C1110      C1111   1.521       .  S
C1111      F1115   1.385       .  S
C1111      F1116   1.381       .  S
C1111      F1117   1.381       .  S
C1114      F1118   1.383       .  S
C1114      F1119   1.381       .  S
C1114      F1120   1.384       .  S
C1121      C1122   1.409   1_545  A
C1121      C1126   1.401       .  A
C1121      H1128   1.084       .  S
C1122      C1123   1.407       .  A
C1123      C1124   1.410   1_565  A
C1123      C1130   1.518       .  S
C1124      C1125   1.408       .  A
C1124      H1129   1.072   1_545  S
C1125      C1126   1.412       .  A
C1126      C1127   1.522       .  S
C1127      F1131   1.385       .  S
C1127      F1132   1.381       .  S
C1127      F1133   1.384       .  S
C1130      F1134   1.383       .  S
C1130      F1135   1.383       .  S
C1130      F1136   1.381       .  S
C1137      C1138   1.391       .  A
C1137      C1142   1.391       .  A
C1137      H1144   1.085       .  S
C1138      C1139   1.437       .  A
C1139      C1140   1.428       .  A
C1139      C1146   1.521       .  S
C1140      C1141   1.409       .  A
C1140      H1145   1.083       .  S
C1141      C1142   1.442       .  A
C1142      C1143   1.526       .  S
C1143      F1147   1.381       .  S
C1143      F1148   1.370       .  S
C1143      F1149   1.388       .  S
C1146      F1150   1.384       .  S
C1146      F1151   1.376       .  S
C1146      F1152   1.385       .  S
C1153      C1154   1.407       .  A
C1153      C1158   1.409       .  A
C1153      H1160   1.081       .  S
C1154      C1155   1.414       .  A
C1155      C1156   1.408       .  A
C1155      C1162   1.516       .  S
C1156      C1157   1.407       .  A
C1156      H1161   1.076       .  S
C1157      C1158   1.416       .  A
C1158      C1159   1.523       .  S
C1159      F1163   1.384       .  S
C1159      F1164   1.379       .  S
C1159      F1165   1.383       .  S
C1162      F1166   1.380       .  S
C1162      F1167   1.381       .  S
C1162      F1168   1.381       .  S
C1169      C1170   1.415       .  A
C1169      C1174   1.431       .  A
C1169      H1176   1.081       .  S
C1170      C1171   1.424       .  A
C1171      C1172   1.420       .  A
C1171      C1178   1.522       .  S
C1172      C1173   1.413       .  A
C1172      H1177   1.079       .  S
C1173      C1174   1.419       .  A
C1174      C1175   1.514       .  S
C1175      F1179   1.384       .  S
C1175      F1180   1.383       .  S
C1175      F1181   1.375       .  S
C1178      F1182   1.382       .  S
C1178      F1183   1.384       .  S
C1178      F1184   1.385       .  S
C1185      C1186   1.404       .  A
C1185      C1190   1.400       .  A
C1185      H1192   1.082       .  S
C1186      C1187   1.424       .  A
C1187      C1188   1.408       .  A
C1187      C1194   1.522       .  S
C1188      C1189   1.408       .  A
C1188      H1193   1.082       .  S
C1189      C1190   1.419       .  A
C1190      C1191   1.508       .  S
C1191      F1195   1.385       .  S
C1191      F1196   1.376       .  S
C1191      F1197   1.377       .  S
C1194      F1198   1.383       .  S
C1194      F1199   1.384       .  S
C1194      F1200   1.385       .  S
C1201      C1202   1.398       .  A
C1201      C1206   1.389       .  A
C1201      H1208   1.083       .  S
C1202      C1203   1.416       .  A
C1203      C1204   1.408       .  A
C1203      C1210   1.516       .  S
C1204      C1205   1.404       .  A
C1204      H1209   1.083       .  S
C1205      C1206   1.410       .  A
C1206      C1207   1.512       .  S
C1207      F1211   1.383       .  S
C1207      F1212   1.382       .  S
C1207      F1213   1.383       .  S
C1210      F1214   1.383       .  S
C1210      F1215   1.383       .  S
C1210      F1216   1.385       .  S
C1217      C1218   1.410       .  A
C1217      C1222   1.427       .  A
C1217      H1224   1.076       .  S
C1218      C1219   1.421       .  A
C1219      C1220   1.415       .  A
C1219      C1226   1.515       .  S
C1220      C1221   1.411       .  A
C1220      H1225   1.084       .  S
C1221      C1222   1.427       .  A
C1222      C1223   1.517       .  S
C1223      F1227   1.384       .  S
C1223      F1228   1.382       .  S
C1223      F1229   1.384       .  S
C1226      F1230   1.383       .  S
C1226      F1231   1.383       .  S
C1226      F1232   1.384       .  S
C1233      C1234   1.391       .  A
C1233      C3254   1.408       .  A
C1233      H3256   1.073       .  S
C1234      C1235   1.416       .  A
C1235      C1236   1.402       .  A
C1235      C1242   1.520       .  S
C1236      C1237   1.411       .  A
C1236      H1241   1.085       .  S
C1237      C2969   1.507       .  S
C1237      C3254   1.438       .  A
C1238      C3249   1.408       .  A
C1238      C3253   1.438       .  A
C1238      C1239   1.515   1_655  S
C1239      F1243   1.384       .  S
C1239      F1244   1.382       .  S
C1239      F1245   1.353       .  S
H1240      C3249   1.073       .  S
C1242      F1246   1.383       .  S
C1242      F1247   1.382       .  S
C1242      F1248   1.383       .  S
C1249      C1250   1.393   1_455  A
C1249      C1254   1.400       .  A
C1249      H3272   1.084   1_455  S
C1250      C2580   1.465       .  S
C1250      C1251   1.412   1_655  A
C1251      C1252   1.404       .  A
C1251      C1258   1.504       .  S
C1252      C1253   1.397       .  A
C1252      H1257   1.083       .  S
C1253      C1254   1.413       .  A
C1254      C1255   1.505       .  S
C1255      F1259   1.379       .  S
C1255      F1260   1.377       .  S
C1255      F1261   1.382       .  S
H1256      C3265   1.084       .  S
C1258      F1262   1.384       .  S
C1258      F1264   1.383       .  S
C1258      F3279   1.383   1_455  S
F1263      C3274   1.383       .  S
C1265      C1266   1.403       .  A
C1265      C1270   1.396       .  A
C1265      H1272   1.083       .  S
C1266      C1267   1.417       .  A
C1267      C1268   1.402       .  A
C1267      C1274   1.520       .  S
C1268      C1269   1.405       .  A
C1268      H1273   1.083       .  S
C1269      C1270   1.414       .  A
C1270      C1271   1.515       .  S
C1271      F1275   1.385       .  S
C1271      F1276   1.383       .  S
C1271      F1277   1.381       .  S
C1274      F1278   1.383       .  S
C1274      F1279   1.382       .  S
C1274      F1280   1.385       .  S
C1281      C1282   1.406       .  A
C1281      C1286   1.415       .  A
C1281      H1288   1.085       .  S
C1282      C1283   1.427       .  A
C1283      C1284   1.426       .  A
C1283      C1290   1.519       .  S
C1284      C1285   1.413       .  A
C1284      H1289   1.083       .  S
C1285      C1286   1.422       .  A
C1286      C1287   1.506       .  S
C1287      F1291   1.384   1_545  S
C1287      F1292   1.379   1_545  S
C1287      F1293   1.382       .  S
C1290      F1294   1.382       .  S
C1290      F1295   1.384       .  S
C1290      F1296   1.385       .  S
C1297      C1298   1.374       .  A
C1297      C1302   1.388       .  A
C1297      H1304   1.082       .  S
C1298      C1299   1.426       .  A
C1299      C1300   1.409       .  A
C1299      C1306   1.511       .  S
C1300      C1301   1.398       .  A
C1300      H1305   1.084       .  S
C1301      C1302   1.443       .  A
C1302      C1303   1.510       .  S
C1303      F1307   1.386       .  S
C1303      F1308   1.368       .  S
C1303      F1309   1.374       .  S
C1306      F1310   1.383       .  S
C1306      F1311   1.382       .  S
C1306      F1312   1.384       .  S
C1313      C1318   1.407       .  A
C1313      C3330   1.404   1_455  A
C1313      H1320   1.083       .  S
C1314      C1315   1.420       .  A
C1314      C3329   1.404       .  A
C1315      C3332   1.403       .  A
C1315      C1322   1.521       .  S
C1316      C1317   1.401       .  A
C1316      C3331   1.403   1_455  A
C1316      H1321   1.083   1_545  S
C1317      C1318   1.417       .  A
C1318      C1319   1.518       .  S
C1319      F1323   1.385       .  S
C1319      F1324   1.383       .  S
C1319      F1325   1.382       .  S
C1322      F1326   1.382       .  S
C1322      F1327   1.383       .  S
C1322      F1328   1.385   1_545  S
C1329      C1330   1.401       .  A
C1329      C1334   1.404       .  A
C1329      H1336   1.083       .  S
C1330      C1331   1.415       .  A
C1331      C1332   1.394       .  A
C1331      C1338   1.512   1_565  S
C1332      C1333   1.400       .  A
C1332      H1337   1.083       .  S
C1333      C1334   1.421       .  A
C1334      C1335   1.520       .  S
C1335      F1339   1.385       .  S
C1335      F1340   1.383       .  S
C1335      F1341   1.383       .  S
C1338      F1342   1.382       .  S
C1338      F1343   1.385   1_545  S
C1338      F1344   1.379       .  S
C1345      C1346   1.400       .  A
C1345      C1350   1.398       .  A
C1345      H1352   1.083       .  S
C1346      C1347   1.425       .  A
C1347      C1348   1.400       .  A
C1347      C1354   1.522       .  S
C1348      C1349   1.398       .  A
C1348      H1353   1.084       .  S
C1349      C1350   1.421       .  A
C1350      C1351   1.523       .  S
C1351      F1355   1.385       .  S
C1351      F1356   1.383       .  S
C1351      F1357   1.383       .  S
C1354      F1358   1.383       .  S
C1354      F1359   1.381       .  S
C1354      F1360   1.383       .  S
C1361      C1362   1.399       .  A
C1361      C1366   1.400       .  A
C1361      H1368   1.085       .  S
C1362      C1363   1.421       .  A
C1363      C1364   1.401       .  A
C1363      C1370   1.522       .  S
C1364      C1365   1.400       .  A
C1364      H1369   1.085       .  S
C1365      C1366   1.418       .  A
C1366      C1367   1.520       .  S
C1367      F1371   1.385       .  S
C1367      F1372   1.381       .  S
C1367      F1373   1.382       .  S
C1370      F1374   1.382       .  S
C1370      F1375   1.383       .  S
C1370      F1376   1.385       .  S
C1377      C1378   1.412       .  A
C1377      C1382   1.404       .  A
C1377      H3400   1.084       .  S
C1378      C1379   1.428       .  A
C1379      C1380   1.414       .  A
C1379      C1386   1.511       .  S
C1380      C1381   1.400       .  A
C1380      H1385   1.083       .  S
C1381      C1382   1.417       .  A
C1382      C1383   1.516       .  S
C1383      F1388   1.383       .  S
C1383      F1389   1.383       .  S
C1383      F3403   1.384       .  S
H1384      C3393   1.084       .  S
C1386      F1390   1.383       .  S
C1386      F1391   1.382       .  S
C1386      F1392   1.379       .  S
F1387      C3399   1.384       .  S
C1393      C1394   1.405       .  A
C1393      C1398   1.425       .  A
C1393      H1400   1.084       .  S
C1394      C1395   1.437       .  A
C1395      C1396   1.409       .  A
C1395      C1402   1.512       .  S
C1396      C1397   1.390       .  A
C1396      H1401   1.084       .  S
C1397      C1398   1.434       .  A
C1398      C1399   1.520       .  S
C1399      F1403   1.376       .  S
C1399      F1404   1.381       .  S
C1399      F1405   1.382       .  S
C1402      F1406   1.380       .  S
C1402      F1407   1.376       .  S
C1402      F1408   1.385       .  S
C1409      C1410   1.408       .  A
C1409      C1414   1.420       .  A
C1409      H1416   1.084       .  S
C1410      C1411   1.426       .  A
C1411      C1412   1.407       .  A
C1411      C1418   1.519       .  S
C1412      C1413   1.402       .  A
C1412      H1417   1.086       .  S
C1413      C1414   1.432       .  A
C1414      C1415   1.519       .  S
C1415      F1419   1.375       .  S
C1415      F1420   1.384       .  S
C1415      F1421   1.377       .  S
C1418      F1422   1.382       .  S
C1418      F1423   1.380       .  S
C1418      F1424   1.384       .  S
C1425      C1426   1.421       .  A
C1425      C1430   1.440       .  A
C1425      H1432   1.082       .  S
C1426      C1427   1.415       .  A
C1427      C1428   1.395       .  A
C1427      C1434   1.522   1_565  S
C1428      C1429   1.414       .  A
C1428      H1433   1.085       .  S
C1429      C1430   1.422       .  A
C1430      C1431   1.510       .  S
C1431      F1435   1.384       .  S
C1431      F1436   1.383       .  S
C1431      F1437   1.383       .  S
C1434      F1438   1.382       .  S
C1434      F1439   1.384       .  S
C1434      F1440   1.385       .  S
C1441      C1446   1.419       .  A
C1441      C3458   1.405       .  A
C1441      H1448   1.083       .  S
C1442      C1443   1.420       .  A
C1442      C3457   1.405   1_455  A
C1443      C1444   1.417       .  A
C1443      C1450   1.518       .  S
C1444      C1445   1.405       .  A
C1444      H1449   1.073       .  S
C1445      C3462   1.427   1_455  A
C1446      C3461   1.427       .  A
C1446      C1447   1.518       .  S
C1447      F1451   1.385       .  S
C1447      F1452   1.382       .  S
C1447      F1453   1.383       .  S
C1450      F1454   1.384       .  S
C1450      F1455   1.384       .  S
C1450      F1456   1.381       .  S
C1457      C1458   1.411       .  A
C1457      C1462   1.413       .  A
C1457      H1464   1.079       .  S
C1458      C3475   1.428   1_455  A
C1459      C1460   1.403       .  A
C1459      C3474   1.428       .  A
C1459      C1466   1.519   1_554  S
C1460      C3477   1.396       .  A
C1460      H1465   1.084   1_554  S
C1461      C1462   1.411       .  A
C1461      C3476   1.396   1_455  A
C1462      C1463   1.515       .  S
C1463      F1467   1.384       .  S
C1463      F1468   1.383       .  S
C1463      F1469   1.384       .  S
C1466      F1470   1.383   1_556  S
C1466      F1471   1.382       .  S
C1466      F1472   1.384       .  S
C1473      C1474   1.404       .  A
C1473      C1478   1.413       .  A
C1473      H1480   1.083       .  S
C1474      C1475   1.424       .  A
C1475      C1476   1.404       .  A
C1475      C1482   1.518       .  S
C1476      C1477   1.397       .  A
C1476      H1481   1.085       .  S
C1477      C1478   1.416       .  A
C1478      C1479   1.514       .  S
C1479      F1483   1.384       .  S
C1479      F1484   1.379       .  S
C1479      F1485   1.382       .  S
C1482      F1486   1.384       .  S
C1482      F1487   1.381       .  S
C1482      F1488   1.383       .  S
C1489      C1490   1.384       .  A
C1489      C1494   1.399       .  A
C1489      H1496   1.083       .  S
C1490      C1491   1.431       .  A
C1491      C1492   1.417       .  A
C1491      C1498   1.516       .  S
C1492      C1493   1.403       .  A
C1492      H1497   1.084       .  S
C1493      C1494   1.441       .  A
C1494      C1495   1.509       .  S
C1495      F1499   1.387       .  S
C1495      F1500   1.377       .  S
C1495      F1501   1.364       .  S
C1498      F1502   1.382       .  S
C1498      F1503   1.380       .  S
C1498      F1504   1.384       .  S
C1505      C1506   1.402       .  A
C1505      C1510   1.408       .  A
C1505      H1512   1.080       .  S
C1506      C1507   1.412       .  A
C1507      C1508   1.399       .  A
C1507      C1514   1.518       .  S
C1508      C1509   1.407       .  A
C1508      H1513   1.084       .  S
C1509      C1510   1.413       .  A
C1510      C1511   1.511       .  S
C1511      F1515   1.385       .  S
C1511      F1516   1.374       .  S
C1511      F1517   1.383       .  S
C1514      F1518   1.381   1_556  S
C1514      F1519   1.382       .  S
C1514      F1520   1.385       .  S
C1521      C1522   1.404       .  A
C1521      C1526   1.411   1_556  A
C1521      H1528   1.083   1_556  S
C1522      C1523   1.418       .  A
C1523      C1524   1.412       .  A
C1523      C1530   1.508   1_565  S
C1524      C1525   1.402       .  A
C1524      H1529   1.083       .  S
C1525      C1526   1.416   1_556  A
C1526      C1527   1.513       .  S
C1527      F1531   1.384       .  S
C1527      F1532   1.383       .  S
C1527      F1533   1.383       .  S
C1530      F1534   1.383       .  S
C1530      F1535   1.382       .  S
C1530      F1536   1.384       .  S
C1537      C1538   1.414       .  A
C1537      C1542   1.430       .  A
C1537      H1544   1.083       .  S
C1538      C1539   1.412       .  A
C1539      C1540   1.409       .  A
C1539      C1546   1.521       .  S
C1540      C1541   1.418       .  A
C1540      H1545   1.083       .  S
C1541      C1542   1.420       .  A
C1542      C1543   1.513       .  S
C1543      F1547   1.384       .  S
C1543      F1548   1.380       .  S
C1543      F1549   1.383       .  S
C1546      F1550   1.383       .  S
C1546      F1551   1.383       .  S
C1546      F1552   1.385       .  S
C1553      C1554   1.400       .  A
C1553      C1558   1.420       .  A
C1553      H1560   1.083       .  S
C1554      C1555   1.450       .  A
C1555      C1556   1.403       .  A
C1555      C1562   1.515       .  S
C1556      C1557   1.383       .  A
C1556      H1561   1.087       .  S
C1557      C1558   1.428       .  A
C1558      C1559   1.501       .  S
C1559      F1563   1.377       .  S
C1559      F1564   1.385       .  S
C1559      F1565   1.374       .  S
C1562      F1566   1.385       .  S
C1562      F1567   1.349       .  S
C1562      F1568   1.385       .  S
C1569      C1570   1.407       .  A
C1569      C1574   1.408       .  A
C1569      H1576   1.083       .  S
C1570      C1571   1.415       .  A
C1571      C1572   1.411       .  A
C1571      C1578   1.514       .  S
C1572      C1573   1.409       .  A
C1572      H1577   1.083       .  S
C1573      C1574   1.419       .  A
C1574      C1575   1.517       .  S
C1575      F1579   1.385       .  S
C1575      F1580   1.378       .  S
C1575      F1581   1.383       .  S
C1578      F1582   1.380   1_556  S
C1578      F1583   1.384       .  S
C1578      F1584   1.385       .  S
C1585      C1586   1.397       .  A
C1585      C1590   1.406       .  A
C1585      H1592   1.085       .  S
C1586      C1587   1.420   1_554  A
C1587      C1588   1.400       .  A
C1587      C1594   1.519       .  S
C1588      C1589   1.396       .  A
C1588      H1593   1.079       .  S
C1589      C1590   1.426   1_556  A
C1590      C1591   1.518       .  S
C1591      F1595   1.384       .  S
C1591      F1596   1.377       .  S
C1591      F1597   1.383       .  S
C1594      F1598   1.382       .  S
C1594      F1599   1.383       .  S
C1594      F1600   1.384       .  S
C1601      C1602   1.401       .  A
C1601      C1606   1.410       .  A
C1601      H1608   1.083       .  S
C1602      C1603   1.426   1_556  A
C1603      C1604   1.402       .  A
C1603      C1610   1.517       .  S
C1604      C1605   1.396   1_544  A
C1604      H1609   1.083   1_545  S
C1605      C1606   1.427   1_565  A
C1606      C1607   1.521       .  S
C1607      F1611   1.385       .  S
C1607      F1612   1.382   1_545  S
C1607      F1613   1.384   1_545  S
C1610      F1614   1.382       .  S
C1610      F1615   1.381       .  S
C1610      F1616   1.385       .  S
C1617      C1618   1.397       .  A
C1617      C1622   1.403       .  A
C1617      H1624   1.085       .  S
C1618      C1619   1.419       .  A
C1619      C1620   1.415       .  A
C1619      C1626   1.515       .  S
C1620      C1621   1.405       .  A
C1620      H1625   1.084       .  S
C1621      C1622   1.424       .  A
C1622      C1623   1.516       .  S
C1623      F1627   1.382       .  S
C1623      F1628   1.381   1_554  S
C1623      F1629   1.381       .  S
C1626      F1630   1.382   1_554  S
C1626      F1631   1.382       .  S
C1626      F1632   1.384       .  S
C1633      C1634   1.402       .  A
C1633      C1638   1.410       .  A
C1633      H1640   1.083       .  S
C1634      C1635   1.422       .  A
C1635      C1636   1.429       .  A
C1635      C1642   1.514       .  S
C1636      C1637   1.415       .  A
C1636      H1641   1.082       .  S
C1637      C1638   1.428       .  A
C1638      C1639   1.520       .  S
C1639      F1643   1.385       .  S
C1639      F1644   1.381       .  S
C1639      F1645   1.384       .  S
C1642      F1646   1.383       .  S
C1642      F1647   1.383       .  S
C1642      F1648   1.384       .  S
C1649      C1650   1.408       .  A
C1649      C1654   1.426       .  A
C1649      H1656   1.083       .  S
C1650      C1651   1.428       .  A
C1651      C1652   1.397       .  A
C1651      C1658   1.512       .  S
C1652      C1653   1.395       .  A
C1652      H1657   1.086       .  S
C1653      C1654   1.423       .  A
C1654      C1655   1.507       .  S
C1655      F1659   1.385       .  S
C1655      F1660   1.383       .  S
C1655      F1661   1.380       .  S
C1658      F1663   1.369       .  S
C1658      F3678   1.385       .  S
C1658      F3680   1.383       .  S
F1662      C3674   1.385       .  S
F1664      C3674   1.383       .  S
C1665      C1666   1.393       .  A
C1665      C1670   1.417       .  A
C1665      H1672   1.085       .  S
C1666      C1667   1.416       .  A
C1667      C1668   1.401       .  A
C1667      C1674   1.519       .  S
C1668      C1669   1.413       .  A
C1668      H1673   1.085       .  S
C1669      C1670   1.445       .  A
C1670      C1671   1.502       .  S
C1671      F1675   1.385       .  S
C1671      F1676   1.357       .  S
C1671      F1677   1.382       .  S
C1674      F1678   1.384       .  S
C1674      F1679   1.382       .  S
C1674      F1680   1.382       .  S
C1681      C1682   1.415       .  A
C1681      C1686   1.418       .  A
C1681      H1688   1.084       .  S
C1682      C1683   1.421       .  A
C1683      C1684   1.411       .  A
C1683      C1690   1.518       .  S
C1684      C1685   1.408       .  A
C1684      H1689   1.079       .  S
C1685      C1686   1.415       .  A
C1686      C1687   1.512       .  S
C1687      F1692   1.383       .  S
C1687      F1693   1.382       .  S
C1687      F3707   1.384       .  S
C1690      F1694   1.384       .  S
C1690      F1695   1.382       .  S
C1690      F1696   1.385       .  S
F1691      C3703   1.384       .  S
C1697      C1698   1.421       .  A
C1697      C1702   1.422       .  A
C1697      H1704   1.083       .  S
C1698      C1699   1.416       .  A
C1699      C1700   1.410       .  A
C1699      C1706   1.520       .  S
C1700      C1701   1.413       .  A
C1700      H1705   1.078       .  S
C1701      C1702   1.415       .  A
C1702      C1703   1.520       .  S
C1703      F1707   1.384       .  S
C1703      F1708   1.383       .  S
C1703      F1709   1.378       .  S
C1706      F1710   1.377       .  S
C1706      F1711   1.383       .  S
C1706      F1712   1.384       .  S
C1713      C1714   1.408       .  A
C1713      C1718   1.404       .  A
C1713      H1720   1.075       .  S
C1714      C1715   1.417   1_545  A
C1715      C1716   1.435   1_565  A
C1715      C1722   1.511       .  S
C1716      C1717   1.422       .  A
C1716      H1721   1.082   1_545  S
C1717      C1718   1.426       .  A
C1718      C1719   1.525       .  S
C1719      F1723   1.385       .  S
C1719      F1724   1.382       .  S
C1719      F1725   1.382       .  S
C1722      F1726   1.383       .  S
C1722      F1727   1.383       .  S
C1722      F1728   1.384       .  S
C1729      C1730   1.399       .  A
C1729      C1734   1.400       .  A
C1729      H1736   1.085       .  S
C1730      C1731   1.424       .  A
C1731      C1732   1.402       .  A
C1731      C1738   1.520       .  S
C1732      C1733   1.399       .  A
C1732      H1737   1.085       .  S
C1733      C1734   1.419       .  A
C1734      C1735   1.519       .  S
C1735      F1739   1.385       .  S
C1735      F1740   1.383       .  S
C1735      F1741   1.382       .  S
C1738      F1742   1.383       .  S
C1738      F1743   1.378       .  S
C1738      F1744   1.384       .  S
C1745      C1746   1.416       .  A
C1745      C1750   1.402       .  A
C1745      H1752   1.081       .  S
C1746      C1747   1.422       .  A
C1747      C1748   1.401       .  A
C1747      C1754   1.521       .  S
C1748      C1749   1.408       .  A
C1748      H1753   1.081       .  S
C1749      C1750   1.418       .  A
C1750      C1751   1.526       .  S
C1751      F1755   1.385       .  S
C1751      F1756   1.384       .  S
C1751      F1757   1.381       .  S
C1754      F1758   1.377       .  S
C1754      F1759   1.375       .  S
C1754      F1760   1.385       .  S
C1761      C1762   1.415       .  A
C1761      C1766   1.424       .  A
C1761      H1768   1.081       .  S
C1762      C1763   1.401       .  A
C1763      C1764   1.404       .  A
C1763      C1770   1.516       .  S
C1764      C1765   1.413       .  A
C1764      H1769   1.072       .  S
C1765      C1766   1.415       .  A
C1766      C1767   1.516   1_545  S
C1767      F1771   1.382       .  S
C1767      F1772   1.383       .  S
C1767      F1773   1.384       .  S
C1770      F1774   1.383       .  S
C1770      F1775   1.382       .  S
C1770      F1776   1.384       .  S
C1777      C1778   1.408       .  A
C1777      C1782   1.408       .  A
C1777      H1784   1.084       .  S
C1778      C1779   1.427       .  A
C1779      C1780   1.417       .  A
C1779      C1786   1.517       .  S
C1780      C1781   1.405       .  A
C1780      H1785   1.084       .  S
C1781      C1782   1.416       .  A
C1782      C1783   1.515       .  S
C1783      F1787   1.383       .  S
C1783      F1788   1.384       .  S
C1783      F1789   1.382       .  S
C1786      F1790   1.383       .  S
C1786      F1791   1.380       .  S
C1786      F1792   1.385       .  S
C1793      C1794   1.418       .  A
C1793      C1798   1.416       .  A
C1793      H1800   1.082       .  S
C1794      C1795   1.434       .  A
C1795      C1796   1.400       .  A
C1795      C1802   1.524       .  S
C1796      C1797   1.396       .  A
C1796      H1801   1.082       .  S
C1797      C1798   1.409       .  A
C1798      C1799   1.514       .  S
C1799      F1803   1.384       .  S
C1799      F1804   1.380       .  S
C1799      F1805   1.383       .  S
C1802      F1806   1.382       .  S
C1802      F1807   1.381       .  S
C1802      F1808   1.386       .  S
C1809      C1810   1.404       .  A
C1809      C1814   1.404   1_565  A
C1809      H1816   1.079       .  S
C1810      C1811   1.417       .  A
C1811      C1812   1.425       .  A
C1811      C1818   1.512       .  S
C1812      C1813   1.414   1_565  A
C1812      H3833   1.083       .  S
C1813      C1814   1.418       .  A
C1814      C1815   1.521       .  S
C1815      F1819   1.384       .  S
C1815      F1820   1.383       .  S
C1815      F1821   1.384       .  S
H1817      C3828   1.083   1_455  S
C1818      F1822   1.383       .  S
C1818      F1823   1.379       .  S
C1818      F3840   1.384       .  S
F1824      C3834   1.384   1_455  S
C1825      C1826   1.398       .  A
C1825      C1830   1.401       .  A
C1825      H1832   1.085       .  S
C1826      C3843   1.421       .  A
C1827      C1828   1.399       .  A
C1827      C3842   1.421   1_455  A
C1827      C1834   1.519       .  S
C1828      C1829   1.397       .  A
C1828      H1833   1.085       .  S
C1829      C3846   1.420       .  A
C1830      C3845   1.420       .  A
C1830      C1831   1.518       .  S
C1831      F1835   1.384       .  S
C1831      F1837   1.382       .  S
C1831      F3852   1.381       .  S
C1834      F1838   1.383       .  S
C1834      F1840   1.383       .  S
C1834      F3855   1.381   1_455  S
F1836      C3847   1.381       .  S
F1839      C3850   1.381       .  S
C1841      C1842   1.400   1_565  A
C1841      C1846   1.403       .  A
C1841      H1848   1.082       .  S
C1842      C1843   1.418       .  A
C1843      C1844   1.408       .  A
C1843      C1850   1.518       .  S
C1844      C1845   1.403       .  A
C1844      H1849   1.085       .  S
C1845      C1846   1.417   1_545  A
C1846      C1847   1.517       .  S
C1847      F1851   1.384       .  S
C1847      F1852   1.380       .  S
C1847      F1853   1.383       .  S
C1850      F1854   1.383       .  S
C1850      F1855   1.382       .  S
C1850      F1856   1.383       .  S
C1857      C1858   1.414       .  A
C1857      C1862   1.418       .  A
C1857      H1864   1.082       .  S
C1858      C1859   1.429       .  A
C1859      C1860   1.410       .  A
C1859      C1866   1.520       .  S
C1860      C1861   1.401       .  A
C1860      H1865   1.081       .  S
C1861      C1862   1.413       .  A
C1862      C1863   1.515       .  S
C1863      F1867   1.384       .  S
C1863      F1868   1.383       .  S
C1863      F1869   1.381       .  S
C1866      F1870   1.382       .  S
C1866      F1871   1.382       .  S
C1866      F1872   1.386       .  S
C1873      C1874   1.410       .  A
C1873      C1878   1.416       .  A
C1873      H1880   1.081       .  S
C1874      C1875   1.423       .  A
C1875      C1876   1.404       .  A
C1875      C1882   1.521       .  S
C1876      C1877   1.401       .  A
C1876      H3897   1.084       .  S
C1877      C1878   1.416       .  A
C1878      C1879   1.514       .  S
C1879      F1883   1.385       .  S
C1879      F1884   1.380       .  S
C1879      F1885   1.383       .  S
H1881      C3892   1.084       .  S
C1882      F1886   1.384       .  S
C1882      F1887   1.379       .  S
C1882      F3904   1.382       .  S
F1888      C3898   1.382   1_455  S
C1889      C1890   1.410       .  A
C1889      C1894   1.419       .  A
C1889      H1896   1.083       .  S
C1890      C1891   1.423       .  A
C1891      C1892   1.404       .  A
C1891      C1898   1.520       .  S
C1892      C1893   1.401       .  A
C1892      H1897   1.081       .  S
C1893      C1894   1.413       .  A
C1894      C1895   1.516       .  S
C1895      F1899   1.384       .  S
C1895      F1900   1.383       .  S
C1895      F1901   1.381       .  S
C1898      F1902   1.380       .  S
C1898      F1903   1.383       .  S
C1898      F1904   1.385       .  S
C1905      C1906   1.398       .  A
C1905      C1910   1.410       .  A
C1905      H1912   1.083       .  S
C1906      C1907   1.417       .  A
C1907      C1908   1.398       .  A
C1907      C1914   1.504       .  S
C1908      C1909   1.396       .  A
C1908      H1913   1.086       .  S
C1909      C1910   1.430       .  A
C1910      C1911   1.521       .  S
C1911      F1915   1.384       .  S
C1911      F1916   1.380       .  S
C1911      F1917   1.381       .  S
C1914      F1918   1.375       .  S
C1914      F3935   1.382       .  S
C1914      F3936   1.384       .  S
F1919      C3930   1.382   1_455  S
F1920      C3930   1.384       .  S
C1921      C1926   1.418       .  A
C1921      C3938   1.408   1_455  A
C1921      H3944   1.083       .  S
C1922      C1923   1.419       .  A
C1922      C3937   1.408       .  A
C1923      C3940   1.408       .  A
C1923      C1930   1.509       .  S
C1924      C1925   1.400       .  A
C1924      C3939   1.408   1_455  A
C1924      H1929   1.084       .  S
C1925      C1926   1.418       .  A
C1926      C1927   1.515       .  S
C1927      F1931   1.384       .  S
C1927      F1932   1.383       .  S
C1927      F1933   1.378       .  S
H1928      C3937   1.083       .  S
C1930      F1934   1.376       .  S
C1930      F1935   1.382       .  S
C1930      F1936   1.385       .  S
C1937      C1938   1.408       .  A
C1937      C1942   1.404       .  A
C1937      H1944   1.083       .  S
C1938      C1939   1.414       .  A
C1939      C1940   1.402       .  A
C1939      C1946   1.518       .  S
C1940      C1941   1.410       .  A
C1940      H1945   1.083       .  S
C1941      C1942   1.419       .  A
C1942      C1943   1.522       .  S
C1943      F1947   1.385       .  S
C1943      F1948   1.383       .  S
C1943      F1949   1.384       .  S
C1946      F1950   1.383       .  S
C1946      F1951   1.382       .  S
C1946      F1952   1.385       .  S
C1953      C1954   1.403       .  A
C1953      C1958   1.400       .  A
C1953      H1960   1.083       .  S
C1954      C1955   1.415       .  A
C1955      C1956   1.389       .  A
C1955      C1962   1.517       .  S
C1956      C1957   1.398       .  A
C1956      H1961   1.074       .  S
C1957      C1958   1.420       .  A
C1958      C1959   1.520       .  S
C1959      F1963   1.385       .  S
C1959      F1964   1.384       .  S
C1959      F1965   1.382       .  S
C1962      F1966   1.380       .  S
C1962      F1967   1.382       .  S
C1962      F1968   1.382       .  S
C1969      C1970   1.395       .  A
C1969      C1974   1.398       .  A
C1969      H1976   1.085       .  S
C1970      C1971   1.417       .  A
C1971      C1972   1.403       .  A
C1971      C1978   1.518       .  S
C1972      C1973   1.399       .  A
C1972      H1977   1.083       .  S
C1973      C1974   1.421       .  A
C1974      C1975   1.520       .  S
C1975      F1979   1.380       .  S
C1975      F1980   1.384       .  S
C1975      F1981   1.379       .  S
C1978      F1982   1.380       .  S
C1978      F1983   1.383       .  S
C1978      F1984   1.385       .  S
C1985      C1986   1.413       .  A
C1985      C1990   1.426       .  A
C1985      H1992   1.083       .  S
C1986      C1987   1.418       .  A
C1987      C1988   1.409       .  A
C1987      C1994   1.518       .  S
C1988      C1989   1.408       .  A
C1988      H1993   1.084       .  S
C1989      C1990   1.418       .  A
C1990      C1991   1.516       .  S
C1991      F1995   1.384       .  S
C1991      F1996   1.379       .  S
C1991      F1997   1.383       .  S
C1994      F1998   1.382       .  S
C1994      F1999   1.383       .  S
C1994      F2000   1.382       .  S
C2001      C2002   1.412       .  A
C2001      C2006   1.400       .  A
C2001      H2008   1.076       .  S
C2002      C2003   1.415       .  A
C2003      C2004   1.418       .  A
C2003      C2010   1.521       .  S
C2004      C2005   1.415       .  A
C2004      H2009   1.084       .  S
C2005      C2006   1.403       .  A
C2006      C2007   1.525       .  S
C2007      F2011   1.385       .  S
C2007      F2012   1.384       .  S
C2007      F4029   1.382       .  S
C2010      F2014   1.376       .  S
C2010      F2015   1.383       .  S
C2010      F2016   1.385       .  S
F2013      C4023   1.382   1_455  S
O2017     Zr2029   2.537       .  S
O2017      C2019   1.304       .  A
O2018     Zr2055   2.370       .  S
O2018      C2019   1.279       .  A
C2019      C4005   1.503       .  S
O2020     Zr2032   2.434       .  S
O2020      C2022   1.284       .  A
O2021     Zr2056   2.467       .  S
O2021      C2022   1.294       .  A
C2022      C3938   1.499       .  S
O2023     Zr2032   2.410       .  S
O2023      C2025   1.265       .  A
O2024     Zr2055   2.495       .  S
O2024      C2025   1.289       .  A
C2025      C4018   1.502       .  S
O2026     Zr2029   2.417       .  S
O2026      C2028   1.283       .  A
O2027     Zr2056   2.414       .  S
O2027      C2028   1.289       .  A
C2028      C3973   1.472       .  S
Zr2029     O2030   2.435       .  S
Zr2029     O2031   2.437       .  S
Zr2029     O2035   2.342       .  S
Zr2029     O2036   2.421       .  S
Zr2029     O2059   2.388       .  S
Zr2029     O2061   2.349       .  S
O2030      H2073   0.990       .  S
O2031      H2072   0.989       .  S
O2031      H2076   0.990       .  S
Zr2032     O2033   2.441       .  S
Zr2032     O2034   2.436       .  S
Zr2032     O2036   2.358       .  S
Zr2032     O2035   2.394       .  S
Zr2032     O2060   2.397       .  S
Zr2032     O2062   2.358       .  S
O2033      H2074   0.988       .  S
O2033      H2077   0.989       .  S
O2034      H2067   0.990       .  S
O2035     Zr2055   2.383       .  S
O2036     Zr2056   2.381       .  S
O2036      H2063   0.964       .  S
O2037     Zr2049   2.504       .  S
O2037      C2039   1.299       .  A
O2038     Zr2056   2.393       .  S
O2038      C2039   1.281       .  A
C2039      C3906   1.495       .  S
O2040     Zr2052   2.413       .  S
O2040      C2042   1.283       .  A
O2041     Zr2055   2.420       .  S
O2041      C2042   1.285       .  A
C2042      C3957   1.484       .  S
O2043     Zr2052   2.326       .  S
O2043      C2045   1.267       .  A
O2044     Zr2056   2.501       .  S
O2044      C2045   1.301       .  A
C2045      C3925   1.460       .  S
O2046     Zr2049   2.410       .  S
O2046      C2048   1.283       .  A
O2047     Zr2055   2.444       .  S
O2047      C2048   1.292       .  A
C2048      C3986   1.460       .  S
Zr2049     O2050   2.437       .  S
Zr2049     O2051   2.434       .  S
Zr2049     O2057   2.347       .  S
Zr2049     O2058   2.388       .  S
Zr2049     O2061   2.390       .  S
Zr2049     O2059   2.330       .  S
O2050      H2070   0.990       .  S
O2050      H2075   0.990       .  S
O2051      H2071   0.990       .  S
Zr2052     O2053   2.434       .  S
Zr2052     O2054   2.436       .  S
Zr2052     O2058   2.330       .  S
Zr2052     O2057   2.380       .  S
Zr2052     O2062   2.382       .  S
Zr2052     O2060   2.329       .  S
O2053      H2069   0.990       .  S
O2054      H2068   0.990       .  S
O2054      H2078   0.990       .  S
Zr2055     O2058   2.381       .  S
Zr2055     O2060   2.387       .  S
Zr2055     O2061   2.400       .  S
Zr2056     O2057   2.374       .  S
Zr2056     O2059   2.401       .  S
Zr2056     O2062   2.365       .  S
O2057      H2065   0.964       .  S
O2060      H2064   0.966       .  S
O2061      H2066   0.966       .  S
O2079     Zr2091   2.425   1_545  S
O2079      C2081   1.284       .  A
O2080     Zr2117   2.391   1_545  S
O2080      C2081   1.283       .  A
C2081      C3970   1.465       .  S
O2082     Zr2094   2.437       .  S
O2082      C2084   1.284       .  A
O2083     Zr2118   2.443       .  S
O2083      C2084   1.291       .  A
C2084      C3810   1.510       .  S
O2085     Zr2094   2.403       .  S
O2085      C2087   1.280       .  A
O2086     Zr2117   2.464       .  S
O2086      C2087   1.294       .  A
C2087      C3858   1.469   1_565  S
O2088     Zr2091   2.398       .  S
O2088      C2090   1.272       .  A
O2089     Zr2118   2.520       .  S
O2089      C2090   1.300       .  A
C2090      C3826   1.496       .  S
Zr2091     O2092   2.431   1_565  S
Zr2091     O2093   2.434   1_565  S
Zr2091     O2097   2.352       .  S
Zr2091     O2098   2.383       .  S
Zr2091     O2121   2.356       .  S
Zr2091     O2123   2.349       .  S
O2092      H2135   0.989       .  S
O2093      H2134   0.988       .  S
O2093      H2138   0.988       .  S
Zr2094     O2095   2.436       .  S
Zr2094     O2096   2.432       .  S
Zr2094     O2098   2.366       .  S
Zr2094     O2097   2.359       .  S
Zr2094     O2122   2.378       .  S
Zr2094     O2124   2.352       .  S
O2095      H2136   0.990       .  S
O2095      H2139   0.990       .  S
O2096      H2129   0.990       .  S
O2097     Zr2117   2.377       .  S
O2098     Zr2118   2.397       .  S
O2098      H2125   0.966       .  S
O2099     Zr2111   2.384       .  S
O2099      C2101   1.277       .  A
O2100     Zr2118   2.446       .  S
O2100      C2101   1.291       .  A
C2101      C3842   1.459       .  S
O2102     Zr2114   2.531       .  S
O2102      C2104   1.305       .  A
O2103     Zr2117   2.361       .  S
O2103      C2104   1.277       .  A
C2104      C3877   1.486       .  S
O2105     Zr2114   2.414       .  S
O2105      C2107   1.285       .  A
O2106     Zr2118   2.445       .  S
O2106      C2107   1.292       .  A
C2107      C3954   1.480       .  S
O2108     Zr2111   2.381       .  S
O2108      C2110   1.261       .  A
O2109     Zr2117   2.500       .  S
O2109      C2110   1.290       .  A
C2110      C3890   1.494       .  S
Zr2111     O2112   2.435       .  S
Zr2111     O2113   2.431       .  S
Zr2111     O2119   2.365       .  S
Zr2111     O2120   2.374       .  S
Zr2111     O2123   2.382       .  S
Zr2111     O2121   2.338       .  S
O2112      H2132   0.990       .  S
O2112      H2137   0.990       .  S
O2113      H2133   0.990       .  S
Zr2114     O2115   2.435       .  S
Zr2114     O2116   2.434       .  S
Zr2114     O2120   2.331       .  S
Zr2114     O2119   2.407       .  S
Zr2114     O2124   2.393       .  S
Zr2114     O2122   2.348       .  S
O2115      H2131   0.990       .  S
O2116      H2130   0.990       .  S
O2116      H2140   0.990       .  S
Zr2117     O2120   2.373       .  S
Zr2117     O2122   2.383       .  S
Zr2117     O2123   2.395       .  S
Zr2118     O2119   2.410       .  S
Zr2118     O2121   2.366       .  S
Zr2118     O2124   2.404       .  S
O2119      H2127   0.966       .  S
O2122      H2126   0.966       .  S
O2123      H2128   0.966       .  S
O2141     Zr2153   2.437       .  S
O2141      C2143   1.287       .  A
O2142     Zr2179   2.400       .  S
O2142      C2143   1.281       .  A
C2143      C3765   1.487       .  S
O2144     Zr2156   2.471       .  S
O2144      C2146   1.293       .  A
O2145     Zr2180   2.469       .  S
O2145      C2146   1.295       .  A
C2146      C3733   1.525       .  S
O2147     Zr2156   2.432       .  S
O2147      C2149   1.287       .  A
O2148     Zr2179   2.473       .  S
O2148      C2149   1.296       .  A
C2149      C3941   1.488       .  S
O2150     Zr2153   2.399       .  S
O2150      C2152   1.271       .  A
O2151     Zr2180   2.511       .  S
O2151      C2152   1.297       .  A
C2152      C3714   1.510       .  S
Zr2153     O2154   2.435       .  S
Zr2153     O2155   2.438       .  S
Zr2153     O2159   2.352       .  S
Zr2153     O2160   2.394       .  S
Zr2153     O2183   2.373       .  S
Zr2153     O2185   2.372       .  S
O2154      H2197   0.990       .  S
O2155      H2196   0.990       .  S
O2155      H2200   0.990       .  S
Zr2156     O2157   2.436       .  S
Zr2156     O2158   2.435       .  S
Zr2156     O2160   2.363       .  S
Zr2156     O2159   2.375       .  S
Zr2156     O2184   2.375       .  S
Zr2156     O2186   2.359       .  S
O2157      H2198   0.989       .  S
O2157      H2201   0.989       .  S
O2158      H2191   0.990       .  S
O2159     Zr2179   2.381       .  S
O2160     Zr2180   2.404       .  S
O2160      H2187   0.962       .  S
O2161     Zr2173   2.408       .  S
O2161      C2163   1.280       .  A
O2162     Zr2180   2.455       .  S
O2162      C2163   1.292       .  A
C2163      C3861   1.472       .  S
O2164     Zr2176   2.538       .  S
O2164      C2166   1.306       .  A
O2165     Zr2179   2.344       .  S
O2165      C2166   1.274       .  A
C2166      C3797   1.480       .  S
O2167     Zr2176   2.420   1_565  S
O2167      C2169   1.285       .  A
O2168     Zr2180   2.447       .  S
O2168      C2169   1.293   1_545  A
C2169      C3746   1.467       .  S
O2170     Zr2173   2.395       .  S
O2170      C2172   1.270       .  A
O2171     Zr2179   2.519       .  S
O2171      C2172   1.295       .  A
C2172      C3778   1.486       .  S
Zr2173     O2174   2.437       .  S
Zr2173     O2175   2.435       .  S
Zr2173     O2181   2.366       .  S
Zr2173     O2182   2.375       .  S
Zr2173     O2185   2.371       .  S
Zr2173     O2183   2.332       .  S
O2174      H2194   0.989       .  S
O2174      H2199   0.989       .  S
O2175      H2195   0.990       .  S
Zr2176     O2177   2.431       .  S
Zr2176     O2178   2.434       .  S
Zr2176     O2182   2.327       .  S
Zr2176     O2181   2.418       .  S
Zr2176     O2186   2.386       .  S
Zr2176     O2184   2.346       .  S
O2177      H2193   0.988       .  S
O2178      H2192   0.990       .  S
O2178      H2202   0.990       .  S
Zr2179     O2182   2.365       .  S
Zr2179     O2184   2.389       .  S
Zr2179     O2185   2.394       .  S
Zr2180     O2181   2.412       .  S
Zr2180     O2183   2.384       .  S
Zr2180     O2186   2.409       .  S
O2181      H2189   0.965       .  S
O2184      H2188   0.966       .  S
O2185      H2190   0.966       .  S
O2203     Zr2215   2.387       .  S
O2203      C2205   1.275       .  A
O2204     Zr2241   2.540       .  S
O2204      C2205   1.308       .  A
C2205      C3650   1.500       .  S
O2206     Zr2218   2.373       .  S
O2206      C2208   1.263       .  A
O2207     Zr2242   2.554       .  S
O2207      C2208   1.296       .  A
C2208      C3685   1.530       .  S
O2209     Zr2218   2.396       .  S
O2209      C2211   1.278       .  A
O2210     Zr2241   2.438       .  S
O2210      C2211   1.289       .  A
C2211      C3989   1.461       .  S
O2212     Zr2215   2.424       .  S
O2212      C2214   1.285       .  A
O2213     Zr2242   2.421       .  S
O2213      C2214   1.288       .  A
C2214      C3749   1.470       .  S
Zr2215     O2216   2.434       .  S
Zr2215     O2217   2.436       .  S
Zr2215     O2221   2.374       .  S
Zr2215     O2222   2.358       .  S
Zr2215     O2245   2.349       .  S
Zr2215     O2247   2.391       .  S
O2216      H2259   0.990       .  S
O2217      H2258   0.989       .  S
O2217      H2262   0.988       .  S
Zr2218     O2219   2.434       .  S
Zr2218     O2220   2.433       .  S
Zr2218     O2222   2.374       .  S
Zr2218     O2221   2.349       .  S
Zr2218     O2246   2.344       .  S
Zr2218     O2248   2.384       .  S
O2219      H2260   0.990       .  S
O2219      H2263   0.990       .  S
O2220      H2253   0.990       .  S
O2221     Zr2241   2.383       .  S
O2222     Zr2242   2.392       .  S
O2222      H2249   0.966       .  S
O2223     Zr2235   2.397       .  S
O2223      C2225   1.279       .  A
O2224     Zr2242   2.457       .  S
O2224      C2225   1.293       .  A
C2225      C3845   1.460       .  S
O2226     Zr2238   2.424       .  S
O2226      C2228   1.288       .  A
O2227     Zr2241   2.449       .  S
O2227      C2228   1.291       .  A
C2228      C3762   1.497       .  S
O2229     Zr2238   2.568       .  S
O2229      C2231   1.313       .  A
O2230     Zr2242   2.342       .  S
O2230      C2231   1.273       .  A
C2231      C3701   1.494       .  S
O2232     Zr2235   2.438       .  S
O2232      C2234   1.289       .  A
O2233     Zr2241   2.464       .  S
O2233      C2234   1.292       .  A
C2234      C3669   1.503       .  S
Zr2235     O2236   2.436       .  S
Zr2235     O2237   2.435       .  S
Zr2235     O2243   2.378       .  S
Zr2235     O2244   2.343       .  S
Zr2235     O2247   2.362       .  S
Zr2235     O2245   2.373       .  S
O2236      H2256   0.990       .  S
O2236      H2261   0.990       .  S
O2237      H2257   0.990       .  S
Zr2238     O2239   2.435       .  S
Zr2238     O2240   2.435       .  S
Zr2238     O2244   2.388       .  S
Zr2238     O2243   2.324       .  S
Zr2238     O2248   2.337       .  S
Zr2238     O2246   2.412       .  S
O2239      H2255   0.990       .  S
O2240      H2254   0.990       .  S
O2240      H2264   0.989       .  S
Zr2241     O2244   2.410       .  S
Zr2241     O2246   2.405       .  S
Zr2241     O2247   2.388       .  S
Zr2242     O2243   2.396       .  S
Zr2242     O2245   2.389       .  S
Zr2242     O2248   2.367       .  S
O2243      H2251   0.965       .  S
O2246      H2250   0.961       .  S
O2247      H2252   0.966       .  S
O2265     Zr2277   2.408       .  S
O2265      C2267   1.271       .  A
O2266     Zr2303   2.515       .  S
O2266      C2267   1.296       .  A
C2267      C3717   1.514       .  S
O2268     Zr2280   2.418       .  S
O2268      C2270   1.285   1_554  A
O2269     Zr2304   2.477       .  S
O2269      C2270   1.300       .  A
C2270      C3618   1.488       .  S
O2271     Zr2280   2.516       .  S
O2271      C2273   1.301       .  A
O2272     Zr2303   2.361       .  S
O2272      C2273   1.278       .  A
C2273      C3909   1.481       .  S
O2274     Zr2277   2.416   1_556  S
O2274      C2276   1.284       .  A
O2275     Zr2304   2.459       .  S
O2275      C2276   1.293       .  A
C2276      C3589   1.491       .  S
Zr2277     O2278   2.433       .  S
Zr2277     O2279   2.437       .  S
Zr2277     O2283   2.372       .  S
Zr2277     O2284   2.348       .  S
Zr2277     O2307   2.349   1_554  S
Zr2277     O2309   2.385       .  S
O2278      H2321   0.988       .  S
O2279      H2320   0.990       .  S
O2279      H2324   0.990       .  S
Zr2280     O2281   2.434       .  S
Zr2280     O2282   2.435       .  S
Zr2280     O2284   2.408       .  S
Zr2280     O2283   2.342       .  S
Zr2280     O2308   2.341       .  S
Zr2280     O2310   2.392   1_554  S
O2281      H2322   0.986       .  S
O2281      H2325   0.990       .  S
O2282      H2315   0.990       .  S
O2283     Zr2303   2.371       .  S
O2284     Zr2304   2.402   1_554  S
O2284      H2311   0.965       .  S
O2285     Zr2297   2.381       .  S
O2285      C2287   1.263       .  A
O2286     Zr2304   2.569       .  S
O2286      C2287   1.313       .  A
C2287      C3570   1.518       .  S
O2288     Zr2300   2.465       .  S
O2288      C2290   1.294   1_556  A
O2289     Zr2303   2.440       .  S
O2289      C2290   1.291       .  A
C2290      C3634   1.485       .  S
O2291     Zr2300   2.499       .  S
O2291      C2293   1.299       .  A
O2292     Zr2304   2.439       .  S
O2292      C2293   1.290       .  A
C2293      C3554   1.503       .  S
O2294     Zr2297   2.382       .  S
O2294      C2296   1.277   1_556  A
O2295     Zr2303   2.462       .  S
O2295      C2296   1.294       .  A
C2296      C3602   1.470       .  S
Zr2297     O2298   2.457       .  S
Zr2297     O2299   2.447       .  S
Zr2297     O2305   2.383       .  S
Zr2297     O2306   2.337       .  S
Zr2297     O2309   2.352   1_556  S
Zr2297     O2307   2.371       .  S
O2298      H2318   0.987       .  S
O2298      H2323   0.989       .  S
O2299      H2319   0.990       .  S
Zr2300     O2301   2.436       .  S
Zr2300     O2302   2.435       .  S
Zr2300     O2306   2.385       .  S
Zr2300     O2305   2.382       .  S
Zr2300     O2310   2.351       .  S
Zr2300     O2308   2.379   1_556  S
O2301      H2317   0.990       .  S
O2302      H2316   0.990       .  S
O2302      H2326   0.990       .  S
Zr2303     O2306   2.372   1_554  S
Zr2303     O2308   2.405       .  S
Zr2303     O2309   2.367       .  S
Zr2304     O2305   2.389       .  S
Zr2304     O2307   2.371       .  S
Zr2304     O2310   2.418       .  S
O2305      H2313   0.966       .  S
O2308      H2312   0.965       .  S
O2309      H2314   0.966       .  S
O2327     Zr2339   2.387       .  S
O2327      C2329   1.267       .  A
O2328     Zr2365   2.542       .  S
O2328      C2329   1.300       .  A
C2329      C3653   1.518       .  S
O2330     Zr2342   2.390       .  S
O2330      C2332   1.278   1_554  A
O2331     Zr2366   2.485       .  S
O2331      C2332   1.299       .  A
C2332      C3605   1.473       .  S
O2333     Zr2342   2.494       .  S
O2333      C2335   1.296       .  A
O2334     Zr2365   2.370       .  S
O2334      C2335   1.281       .  A
C2335      C3813   1.478       .  S
O2336     Zr2339   2.483   1_556  S
O2336      C2338   1.296       .  A
O2337     Zr2366   2.369       .  S
O2337      C2338   1.277       .  A
C2338      C3522   1.469       .  S
Zr2339     O2340   2.434       .  S
Zr2339     O2341   2.437       .  S
Zr2339     O2345   2.387       .  S
Zr2339     O2346   2.362       .  S
Zr2339     O2369   2.295   1_554  S
Zr2339     O2371   2.414   1_554  S
O2340      H2383   0.990       .  S
O2341      H2382   0.990       .  S
O2341      H2386   0.990       .  S
Zr2342     O2343   2.436       .  S
Zr2342     O2344   2.435       .  S
Zr2342     O2346   2.410       .  S
Zr2342     O2345   2.330       .  S
Zr2342     O2370   2.348       .  S
Zr2342     O2372   2.389   1_554  S
O2343      H2384   0.989       .  S
O2343      H2387   0.990       .  S
O2344      H2377   0.990       .  S
O2345     Zr2365   2.370       .  S
O2346     Zr2366   2.393   1_554  S
O2346      H2373   0.963       .  S
O2347     Zr2359   2.402       .  S
O2347      C2349   1.272       .  A
O2348     Zr2366   2.516       .  S
O2348      C2349   1.304       .  A
C2349      C3506   1.491       .  S
O2350     Zr2362   2.407       .  S
O2350      C2352   1.281       .  A
O2351     Zr2365   2.492       .  S
O2351      C2352   1.300   1_554  A
C2352      C3541   1.483       .  S
O2353     Zr2362   2.459       .  S
O2353      C2355   1.290       .  A
O2354     Zr2366   2.419       .  S
O2354      C2355   1.285       .  A
C2355      C3493   1.479       .  S
O2356     Zr2359   2.428       .  S
O2356      C2358   1.281       .  A
O2357     Zr2365   2.427       .  S
O2357      C2358   1.290   1_554  A
C2358      C3621   1.486       .  S
Zr2359     O2360   2.439       .  S
Zr2359     O2361   2.433       .  S
Zr2359     O2367   2.397       .  S
Zr2359     O2368   2.351       .  S
Zr2359     O2371   2.370       .  S
Zr2359     O2369   2.355       .  S
O2360      H2380   0.990       .  S
O2360      H2385   0.989       .  S
O2361      H2381   0.990       .  S
Zr2362     O2363   2.435       .  S
Zr2362     O2364   2.434       .  S
Zr2362     O2368   2.379       .  S
Zr2362     O2367   2.364       .  S
Zr2362     O2372   2.360       .  S
Zr2362     O2370   2.385   1_556  S
O2363      H2379   0.990       .  S
O2364      H2378   0.990       .  S
O2364      H2388   0.990       .  S
Zr2365     O2368   2.389   1_554  S
Zr2365     O2370   2.387       .  S
Zr2365     O2371   2.403   1_554  S
Zr2366     O2367   2.400       .  S
Zr2366     O2369   2.354       .  S
Zr2366     O2372   2.391       .  S
O2367      H2375   0.966       .  S
O2370      H2374   0.965       .  S
O2371      H2376   0.966   1_556  S
O2389     Zr2401   2.381       .  S
O2389      C2391   1.265       .  A
O2390     Zr2427   2.521       .  S
C2391      C3829   1.495       .  S
O2392     Zr2404   2.487   1_556  S
O2392      C2394   1.299       .  A
O2393     Zr2428   2.459       .  S
O2393      C2394   1.296       .  A
C2394      C3458   1.506       .  S
O2395     Zr2404   2.593       .  S
O2395      C2397   1.314   1_565  A
O2396     Zr2427   2.358       .  S
O2396      C2397   1.268       .  A
C2397      C3730   1.515       .  S
O2398     Zr2401   2.403   1_566  S
O2398      C2400   1.279       .  A
O2399      C2400   1.299       .  A
C2400      C3538   1.488       .  S
Zr2401     O2402   2.434   1_545  S
Zr2401     O2403   2.436       .  S
Zr2401     O2431   2.348   1_554  S
Zr2401     O2433   2.379       .  S
O2402      H2445   0.990       .  S
O2403      H2444   0.990       .  S
O2403      H2448   0.990       .  S
Zr2404     O2405   2.434       .  S
Zr2404     O2406   2.435       .  S
Zr2404     O2408   2.421   1_554  S
Zr2404     O2407   2.337   1_565  S
Zr2404     O2432   2.362   1_565  S
Zr2404     O2434   2.396   1_554  S
O2405      H2446   0.990       .  S
O2405      H2449   0.990       .  S
O2406      H2439   0.990       .  S
O2407     Zr2427   2.387       .  S
O2408     Zr2428   2.417       .  S
O2409      C2411   1.268       .  A
O2410      C2411   1.310       .  A
C2411      C3429   1.482       .  S
O2412     Zr2424   2.408       .  S
O2412      C2414   1.283       .  A
O2413     Zr2427   2.479       .  S
O2413      C2414   1.298   1_554  A
C2414      C3586   1.489       .  S
O2415     Zr2424   2.439   1_565  S
O2415      C2417   1.288       .  A
O2416     Zr2428   2.491       .  S
O2416      C2417   1.298       .  A
C2417      C3442   1.512       .  S
O2418     Zr2421   2.454       .  S
O2418      C2420   1.289   1_556  A
O2419     Zr2427   2.441       .  S
O2419      C2420   1.291       .  A
C2420      C3474   1.500       .  S
Zr2421     O2422   2.435       .  S
Zr2421     O2429   2.398       .  S
Zr2421     O2430   2.330       .  S
O2422      H2442   0.990       .  S
O2423      H2443   0.990       .  S
Zr2424     O2425   2.434       .  S
Zr2424     O2426   2.436       .  S
Zr2424     O2430   2.370       .  S
Zr2424     O2429   2.360       .  S
Zr2424     O2434   2.348   1_545  S
Zr2424     O2432   2.364   1_556  S
O2425      H2441   0.990       .  S
O2426      H2440   0.990   1_545  S
O2426      H2450   0.990       .  S
Zr2427     O2430   2.369   1_554  S
Zr2427     O2432   2.404       .  S
Zr2428     O2429   2.401   1_565  S
Zr2428     O2434   2.408       .  S
O2429      H2437   0.966       .  S
O2432      H2436   0.966       .  S
O2433      H2438   0.965       .  S
O2451     Zr2463   2.374       .  S
O2451      C2453   1.273       .  A
O2452      C2453   1.309       .  A
C2453      C3666   1.496       .  S
O2454     Zr2466   2.426   1_456  S
O2455     Zr2490   2.527       .  S
O2455      C2456   1.308       .  A
C2456      C3461   1.511       .  S
O2457     Zr2466   2.538       .  S
O2457      C2459   1.306       .  A
O2458     Zr2489   2.307   1_655  S
O2458      C2459   1.268       .  A
C2459      C3922   1.467       .  S
O2460     Zr2463   2.392   1_556  S
O2460      C2462   1.278       .  A
O2461     Zr2490   2.444       .  S
O2461      C2462   1.288       .  A
C2462      C3525   1.480       .  S
Zr2463     O2464   2.436       .  S
Zr2463     O2465   2.436       .  S
Zr2463     O2469   2.359       .  S
Zr2463     O2470   2.365   1_554  S
Zr2463     O2493   2.345   1_554  S
Zr2463     O2495   2.371       .  S
O2464      H2507   0.990       .  S
O2465      H2506   0.990       .  S
O2465      H2510   0.990       .  S
Zr2466     O2467   2.440   1_655  S
Zr2466     O2468   2.435       .  S
Zr2466     O2494   2.338       .  S
Zr2466     O2496   2.369   1_554  S
O2467      H2511   0.989   1_455  S
O2468      H2501   0.990       .  S
O2470     Zr2490   2.408       .  S
O2470      H2497   0.966       .  S
O2471     Zr2483   2.357       .  S
O2471      C2473   1.271       .  A
O2472     Zr2490   2.553       .  S
O2472      C2473   1.314       .  A
C2473      C3413   1.492       .  S
O2474     Zr2486   2.426       .  S
O2474      C2476   1.285   1_556  A
O2475     Zr2489   2.483   1_655  S
O2475      C2476   1.298       .  A
C2476      C3637   1.487       .  S
O2477     Zr2486   2.483       .  S
O2477      C2479   1.294       .  A
O2478     Zr2490   2.412       .  S
C2479      C3394   1.512       .  S
O2480     Zr2483   2.428       .  S
O2480      C2482   1.284   1_556  A
O2481     Zr2489   2.433       .  S
C2482      C3477   1.473       .  S
Zr2483     O2484   2.432       .  S
Zr2483     O2485   2.435       .  S
Zr2483     O2491   2.404       .  S
Zr2483     O2495   2.360   1_556  S
Zr2483     O2493   2.381       .  S
O2484      H2504   0.989       .  S
O2484      H2509   0.990       .  S
O2485      H2505   0.990       .  S
Zr2486     O2487   2.435       .  S
Zr2486     O2488   2.429       .  S
Zr2486     O2492   2.385       .  S
Zr2486     O2496   2.347       .  S
Zr2486     O2494   2.377   1_556  S
O2487      H2503   0.990       .  S
O2488      H2502   0.989       .  S
O2488      H2512   0.990       .  S
Zr2489     O2492   2.380   1_454  S
Zr2489     O2494   2.408   1_455  S
Zr2490     O2491   2.402       .  S
Zr2490     O2493   2.389       .  S
O2491      H2499   0.964       .  S
O2494      H2498   0.964       .  S
O2495      H2500   0.966       .  S
O2513     Zr2525   2.567       .  S
O2513      C2515   1.312       .  A
O2514     Zr2551   2.343       .  S
O2514      C2515   1.275       .  A
C2515      C3557   1.521       .  S
O2516     Zr2528   2.450       .  S
O2516      C2518   1.288       .  A
O2517     Zr2552   2.398       .  S
O2517      C2518   1.281       .  A
C2518      C3330   1.477       .  S
O2519     Zr2528   2.382       .  S
O2519      C2521   1.264       .  A
O2520     Zr2551   2.521       .  S
O2520      C2521   1.295       .  A
C2521      C3426   1.509       .  S
O2522     Zr2525   2.433       .  S
O2522      C2524   1.289       .  A
O2523     Zr2552   2.418       .  S
O2523      C2524   1.286       .  A
C2524      C3346   1.471   1_545  S
Zr2525     O2526   2.434       .  S
Zr2525     O2527   2.435       .  S
Zr2525     O2531   2.332       .  S
Zr2525     O2532   2.414       .  S
Zr2525     O2555   2.400       .  S
Zr2525     O2557   2.342       .  S
O2526      H2569   0.990       .  S
O2527      H2568   0.990       .  S
O2527      H2572   0.990       .  S
Zr2528     O2529   2.434       .  S
Zr2528     O2530   2.434       .  S
Zr2528     O2532   2.355       .  S
Zr2528     O2531   2.386       .  S
Zr2528     O2556   2.403       .  S
Zr2528     O2558   2.313       .  S
O2529      H2570   0.989       .  S
O2529      H2573   0.989       .  S
O2530      H2563   0.990       .  S
O2531     Zr2551   2.365       .  S
O2532     Zr2552   2.389       .  S
O2532      H2559   0.966       .  S
O2533     Zr2545   2.506       .  S
O2533      C2535   1.300       .  A
O2534     Zr2552   2.438       .  S
O2534      C2535   1.288       .  A
C2535      C3298   1.521       .  S
O2536     Zr2548   2.408       .  S
O2536      C2538   1.277       .  A
O2537     Zr2551   2.412       .  S
O2537      C2538   1.286       .  A
C2538      C3362   1.474       .  S
O2539     Zr2548   2.373       .  S
O2539      C2541   1.271       .  A
O2540     Zr2552   2.497       .  S
O2540      C2541   1.305       .  A
C2541      C3314   1.479       .  S
O2542     Zr2545   2.424       .  S
O2542      C2544   1.287       .  A
O2543     Zr2551   2.435       .  S
O2543      C2544   1.290       .  A
C2544      C3381   1.465       .  S
Zr2545     O2546   2.436       .  S
Zr2545     O2547   2.433       .  S
Zr2545     O2553   2.368       .  S
Zr2545     O2554   2.389       .  S
Zr2545     O2557   2.402       .  S
Zr2545     O2555   2.347       .  S
O2546      H2566   0.990       .  S
O2546      H2571   0.990       .  S
O2547      H2567   0.990       .  S
Zr2548     O2549   2.435       .  S
Zr2548     O2550   2.434       .  S
Zr2548     O2554   2.336       .  S
Zr2548     O2553   2.388       .  S
Zr2548     O2558   2.362       .  S
Zr2548     O2556   2.364       .  S
O2549      H2565   0.990       .  S
O2550      H2564   0.990       .  S
O2550      H2574   0.990       .  S
Zr2551     O2554   2.390       .  S
Zr2551     O2556   2.378       .  S
Zr2551     O2557   2.397       .  S
Zr2552     O2553   2.383       .  S
Zr2552     O2555   2.395       .  S
Zr2552     O2558   2.339       .  S
O2553      H2561   0.966       .  S
O2556      H2560   0.966       .  S
O2557      H2562   0.965       .  S
O2575     Zr2587   2.508       .  S
O2575      C2577   1.299       .  A
O2576     Zr2613   2.373       .  S
O2576      C2577   1.278       .  A
C2577      C3490   1.484       .  S
O2578     Zr2590   2.434       .  S
O2578      C2580   1.286       .  A
O2579     Zr2614   2.408       .  S
O2579      C2580   1.282       .  A
O2581     Zr2590   2.401       .  S
O2581      C2583   1.275       .  A
O2582     Zr2613   2.477       .  S
O2582      C2583   1.294       .  A
C2583      C3397   1.489       .  S
O2584     Zr2587   2.394       .  S
O2584      C2586   1.278       .  A
O2585     Zr2614   2.440       .  S
O2585      C2586   1.292       .  A
C2586      C3365   1.466       .  S
Zr2587     O2588   2.434       .  S
Zr2587     O2589   2.436       .  S
Zr2587     O2593   2.339       .  S
Zr2587     O2594   2.406       .  S
Zr2587     O2617   2.388       .  S
Zr2587     O2619   2.344       .  S
O2588      H2631   0.990       .  S
O2589      H2630   0.990       .  S
O2589      H2634   0.990       .  S
Zr2590     O2591   2.436       .  S
Zr2590     O2592   2.434       .  S
Zr2590     O2594   2.356       .  S
Zr2590     O2593   2.382       .  S
Zr2590     O2618   2.373       .  S
Zr2590     O2620   2.361       .  S
O2591      H2632   0.990       .  S
O2591      H2635   0.990       .  S
O2592      H2625   0.990       .  S
O2593     Zr2613   2.367       .  S
O2594     Zr2614   2.404       .  S
O2594      H2621   0.966       .  S
O2595     Zr2607   2.519       .  S
O2595      C2597   1.302       .  A
O2596     Zr2614   2.422       .  S
O2596      C2597   1.286       .  A
C2597      C3237   1.526       .  S
O2598     Zr2610   2.432       .  S
O2598      C2600   1.287       .  A
O2599     Zr2613   2.396       .  S
O2599      C2600   1.279       .  A
C2600      C3349   1.473       .  S
O2601     Zr2610   2.350       .  S
O2601      C2603   1.270       .  A
O2602     Zr2614   2.502       .  S
O2602      C2603   1.301       .  A
C2603      C3250   1.472       .  S
O2604     Zr2607   2.419       .  S
O2604      C2606   1.287       .  A
O2605     Zr2613   2.421       .  S
O2605      C2606   1.286       .  A
C2606      C3282   1.472       .  S
Zr2607     O2608   2.437       .  S
Zr2607     O2609   2.433       .  S
Zr2607     O2615   2.353       .  S
Zr2607     O2616   2.394       .  S
Zr2607     O2619   2.389       .  S
Zr2607     O2617   2.332       .  S
O2608      H2628   0.990       .  S
O2608      H2633   0.990       .  S
O2609      H2629   0.990       .  S
Zr2610     O2611   2.434       .  S
Zr2610     O2612   2.437       .  S
Zr2610     O2616   2.332       .  S
Zr2610     O2615   2.396       .  S
Zr2610     O2620   2.380       .  S
Zr2610     O2618   2.345       .  S
O2611      H2627   0.990       .  S
O2612      H2626   0.990       .  S
O2612      H2636   0.990       .  S
Zr2613     O2616   2.381       .  S
Zr2613     O2618   2.373       .  S
Zr2613     O2619   2.395       .  S
Zr2614     O2615   2.377       .  S
Zr2614     O2617   2.388       .  S
Zr2614     O2620   2.378       .  S
O2615      H2623   0.965       .  S
O2618      H2622   0.965       .  S
O2619      H2624   0.965       .  S
O2637     Zr2649   2.640       .  S
O2637      C2639   1.327       .  A
O2638     Zr2675   2.297       .  S
O2638      C2639   1.265       .  A
C2639      C3410   1.515       .  S
O2640     Zr2652   2.401       .  S
O2640      C2642   1.278       .  A
O2641     Zr2676   2.418       .  S
O2641      C2642   1.285       .  A
C2642      C3378   1.467       .  S
O2643     Zr2652   2.365       .  S
O2643      C2645   1.261       .  A
O2644     Zr2675   2.588       .  S
O2644      C2645   1.307       .  A
C2645      C3573   1.502       .  S
O2646     Zr2649   2.428       .  S
O2646      C2648   1.287       .  A
O2647     Zr2676   2.427       .  S
O2647      C2648   1.289       .  A
C2648      C3221   1.463       .  S
Zr2649     O2650   2.435       .  S
Zr2649     O2651   2.435       .  S
Zr2649     O2655   2.309       .  S
Zr2649     O2656   2.453       .  S
Zr2649     O2679   2.404       .  S
Zr2649     O2681   2.313       .  S
O2650      H2693   0.990       .  S
O2651      H2692   0.990       .  S
O2651      H2696   0.990       .  S
Zr2652     O2653   2.448       .  S
Zr2652     O2654   2.437       .  S
Zr2652     O2656   2.370       .  S
Zr2652     O2655   2.389       .  S
Zr2652     O2680   2.376       .  S
Zr2652     O2682   2.320       .  S
O2653      H2694   0.990       .  S
O2653      H2697   0.988       .  S
O2654      H2687   0.990       .  S
O2655     Zr2675   2.313       .  S
O2656     Zr2676   2.404       .  S
O2656      H2683   0.965       .  S
O2657     Zr2669   2.537       .  S
O2657      C2659   1.305       .  A
O2658     Zr2676   2.422       .  S
O2658      C2659   1.285       .  A
C2659      C3186   1.525       .  S
O2660     Zr2672   2.456       .  S
O2660      C2662   1.291       .  A
O2661     Zr2675   2.396       .  S
O2661      C2662   1.279       .  A
C2662      C3202   1.492       .  S
O2663     Zr2672   2.401       .  S
O2663      C2665   1.272       .  A
O2664     Zr2676   2.495       .  S
O2664      C2665   1.295       .  A
C2665      C3170   1.476       .  S
O2666     Zr2669   2.434       .  S
O2666      C2668   1.288       .  A
O2667     Zr2675   2.441       .  S
O2667      C2668   1.290       .  A
C2668      C3269   1.467       .  S
Zr2669     O2670   2.435       .  S
Zr2669     O2671   2.436       .  S
Zr2669     O2677   2.361       .  S
Zr2669     O2678   2.402       .  S
Zr2669     O2681   2.401       .  S
Zr2669     O2679   2.347       .  S
O2670      H2690   0.990       .  S
O2670      H2695   0.990       .  S
O2671      H2691   0.990       .  S
Zr2672     O2673   2.436       .  S
Zr2672     O2674   2.439       .  S
Zr2672     O2678   2.342       .  S
Zr2672     O2677   2.406       .  S
Zr2672     O2682   2.379       .  S
Zr2672     O2680   2.373       .  S
O2673      H2689   0.990       .  S
O2674      H2688   0.990       .  S
O2674      H2698   0.988       .  S
Zr2675     O2678   2.387       .  S
Zr2675     O2680   2.369       .  S
Zr2675     O2681   2.393       .  S
Zr2676     O2677   2.393       .  S
Zr2676     O2679   2.405       .  S
Zr2676     O2682   2.373       .  S
O2677      H2685   0.966       .  S
O2680      H2684   0.965       .  S
O2681      H2686   0.964       .  S
O2699     Zr2711   2.598       .  S
O2699      C2701   1.316       .  A
O2700     Zr2737   2.323       .  S
O2700      C2701   1.272       .  A
C2701      C3445   1.526       .  S
O2702     Zr2714   2.423       .  S
O2702      C2704   1.281       .  A
O2703     Zr2738   2.406       .  S
O2703      C2704   1.280       .  A
C2704      C3285   1.471       .  S
O2705     Zr2714   2.430       .  S
O2705      C2707   1.274       .  A
O2706     Zr2737   2.569       .  S
O2706      C2707   1.310       .  A
C2707      C3509   1.511       .  S
O2708     Zr2711   2.422       .  S
O2708      C2710   1.287       .  A
O2709     Zr2738   2.455       .  S
O2709      C2710   1.292       .  A
C2710      C3205   1.497       .  S
Zr2711     O2712   2.434       .  S
Zr2711     O2713   2.435       .  S
Zr2711     O2717   2.309       .  S
Zr2711     O2718   2.454       .  S
Zr2711     O2741   2.396       .  S
Zr2711     O2743   2.347       .  S
O2712      H2755   0.990       .  S
O2713      H2754   0.990       .  S
O2713      H2758   0.990       .  S
Zr2714     O2715   2.453       .  S
Zr2714     O2716   2.439   1_565  S
Zr2714     O2718   2.414       .  S
Zr2714     O2717   2.371       .  S
Zr2714     O2742   2.356   1_565  S
Zr2714     O2744   2.324       .  S
O2715      H2756   0.989       .  S
O2715      H2759   0.989       .  S
O2716      H2749   0.991       .  S
O2717     Zr2737   2.296       .  S
O2718     Zr2738   2.383       .  S
O2718      H2745   0.965       .  S
O2719     Zr2731   2.508       .  S
O2719      C2721   1.304       .  A
O2720     Zr2738   2.378       .  S
O2720      C2721   1.274       .  A
C2721      C3154   1.506       .  S
O2722     Zr2734   2.427       .  S
O2722      C2724   1.287       .  A
O2723     Zr2737   2.408   1_545  S
O2723      C2724   1.284       .  A
C2724      C3218   1.466       .  S
O2725     Zr2734   2.364       .  S
O2725      C2727   1.274   1_545  A
O2726     Zr2738   2.478       .  S
O2726      C2727   1.296       .  A
C2727      C3138   1.474       .  S
O2728     Zr2731   2.437       .  S
O2728      C2730   1.289   1_565  A
O2729     Zr2737   2.437   1_545  S
O2729      C2730   1.289       .  A
C2730      C3333   1.476       .  S
Zr2731     O2732   2.437       .  S
Zr2731     O2733   2.434       .  S
Zr2731     O2739   2.350       .  S
Zr2731     O2740   2.383   1_565  S
Zr2731     O2743   2.388       .  S
Zr2731     O2741   2.349       .  S
O2732      H2752   0.990   1_565  S
O2732      H2757   0.990       .  S
O2733      H2753   0.990       .  S
Zr2734     O2735   2.434       .  S
Zr2734     O2736   2.441       .  S
Zr2734     O2740   2.330       .  S
Zr2734     O2739   2.389   1_545  S
Zr2734     O2744   2.380   1_545  S
Zr2734     O2742   2.371       .  S
O2735      H2751   0.990       .  S
O2736      H2750   0.990       .  S
O2736      H2760   0.990       .  S
Zr2737     O2740   2.383   1_565  S
Zr2737     O2742   2.380   1_565  S
Zr2737     O2743   2.393       .  S
Zr2738     O2739   2.388       .  S
Zr2738     O2741   2.399       .  S
Zr2738     O2744   2.374       .  S
O2739      H2747   0.966       .  S
O2742      H2746   0.965       .  S
O2743      H2748   0.966       .  S
O2761     Zr2773   2.395       .  S
O2761      C2763   1.269       .  A
O2762     Zr2799   2.509       .  S
O2762      C2763   1.294   1_565  A
C2763      C3781   1.508       .  S
O2764     Zr2776   2.395       .  S
O2764      C2766   1.280       .  A
O2765     Zr2800   2.433       .  S
O2765      C2766   1.288       .  A
C2766      C3122   1.461       .  S
O2767     Zr2776   2.474   1_565  S
O2767      C2769   1.293       .  A
O2768     Zr2799   2.441       .  S
O2768      C2769   1.290       .  A
C2769      C3874   1.514       .  S
O2770     Zr2773   2.443       .  S
O2770      C2772   1.286       .  A
O2771     Zr2800   2.385       .  S
O2771      C2772   1.280       .  A
C2772      C3106   1.475       .  S
Zr2773     O2774   2.434       .  S
Zr2773     O2775   2.447       .  S
Zr2773     O2779   2.395       .  S
Zr2773     O2780   2.354       .  S
Zr2773     O2803   2.344       .  S
Zr2773     O2805   2.387       .  S
O2774      H2817   0.990       .  S
O2775      H2816   0.989       .  S
O2775      H2820   0.990       .  S
Zr2776     O2777   2.434       .  S
Zr2776     O2778   2.433       .  S
Zr2776     O2780   2.394       .  S
Zr2776     O2779   2.351       .  S
Zr2776     O2804   2.348   1_545  S
Zr2776     O2806   2.389       .  S
O2777      H2818   0.990       .  S
O2777      H2821   0.990       .  S
O2778      H2811   0.990   1_545  S
O2779     Zr2799   2.384   1_545  S
O2780     Zr2800   2.380       .  S
O2780      H2807   0.966       .  S
O2781     Zr2793   2.393       .  S
O2781      C2783   1.264       .  A
O2782     Zr2800   2.460       .  S
O2782      C2783   1.279       .  A
C2783      C3141   1.478       .  S
O2784     Zr2796   2.451       .  S
O2784      C2786   1.291       .  A
O2785     Zr2799   2.428       .  S
O2785      C2786   1.289       .  A
C2786      C3090   1.466       .  S
O2787     Zr2796   2.583       .  S
O2787      C2789   1.316   1_565  A
O2788     Zr2800   2.348       .  S
O2788      C2789   1.271       .  A
C2789      C3301   1.510       .  S
O2790     Zr2793   2.420   1_565  S
O2790      C2792   1.282       .  A
O2791     Zr2799   2.426       .  S
O2791      C2792   1.286       .  A
C2792      C3074   1.469       .  S
Zr2793     O2794   2.441   1_545  S
Zr2793     O2795   2.435       .  S
Zr2793     O2801   2.387       .  S
Zr2793     O2802   2.347   1_545  S
Zr2793     O2805   2.361       .  S
Zr2793     O2803   2.391       .  S
O2794      H2814   0.987       .  S
O2794      H2819   0.989       .  S
O2795      H2815   0.990       .  S
Zr2796     O2797   2.436       .  S
Zr2796     O2798   2.434       .  S
Zr2796     O2802   2.417       .  S
Zr2796     O2801   2.329   1_565  S
Zr2796     O2806   2.350   1_565  S
Zr2796     O2804   2.404       .  S
O2797      H2813   0.990       .  S
O2798      H2812   0.990       .  S
O2798      H2822   0.990       .  S
Zr2799     O2802   2.405       .  S
Zr2799     O2804   2.413       .  S
Zr2799     O2805   2.390   1_565  S
Zr2800     O2801   2.397       .  S
Zr2800     O2803   2.375       .  S
Zr2800     O2806   2.384       .  S
O2801      H2809   0.960   1_545  S
O2804      H2808   0.966       .  S
O2805      H2810   0.964       .  S
O2823     Zr2835   2.353       .  S
O2823      C2825   1.271       .  A
O2824     Zr2861   2.507       .  S
O2824      C2825   1.302       .  A
C2825      C3682   1.481       .  S
O2826     Zr2838   2.397       .  S
O2826      C2828   1.279       .  A
O2827     Zr2862   2.427       .  S
O2827      C2828   1.289       .  A
C2828      C3061   1.458       .  S
O2829     Zr2838   2.496       .  S
O2829      C2831   1.296       .  A
O2830     Zr2861   2.429       .  S
O2830      C2831   1.286       .  A
C2831      C4002   1.504       .  S
O2832     Zr2835   2.430       .  S
O2832      C2834   1.284       .  A
O2833     Zr2862   2.400       .  S
O2833      C2834   1.279       .  A
C2834      C3093   1.460       .  S
Zr2835     O2836   2.432       .  S
Zr2835     O2837   2.438       .  S
Zr2835     O2841   2.393       .  S
Zr2835     O2842   2.345       .  S
Zr2835     O2865   2.342       .  S
Zr2835     O2867   2.385       .  S
O2836      H2879   0.990       .  S
O2837      H2878   0.990       .  S
O2837      H2882   0.990       .  S
Zr2838     O2839   2.434       .  S
Zr2838     O2840   2.433       .  S
Zr2838     O2842   2.402       .  S
Zr2838     O2841   2.363       .  S
Zr2838     O2866   2.331       .  S
Zr2838     O2868   2.398       .  S
O2839      H2880   0.990       .  S
O2839      H2883   0.990       .  S
O2840      H2873   0.990       .  S
O2841     Zr2861   2.369       .  S
O2842     Zr2862   2.382       .  S
O2842      H2869   0.966       .  S
O2843     Zr2855   2.402       .  S
O2843      C2845   1.267       .  A
O2844     Zr2862   2.468       .  S
O2844      C2845   1.282       .  A
C2845      C3173   1.491       .  S
O2846     Zr2858   2.456       .  S
O2846      C2848   1.292       .  A
O2847     Zr2861   2.405       .  S
O2847      C2848   1.286       .  A
C2848      C3109   1.474       .  S
O2849     Zr2858   2.589       .  S
O2849      C2851   1.316       .  A
O2850     Zr2862   2.331       .  S
O2850      C2851   1.269       .  A
C2851      C3234   1.504       .  S
O2852     Zr2855   2.417       .  S
O2852      C2854   1.280       .  A
O2853     Zr2861   2.405       .  S
O2853      C2854   1.282       .  A
C2854      C3042   1.457       .  S
Zr2855     O2856   2.431       .  S
Zr2855     O2857   2.430       .  S
Zr2855     O2863   2.373       .  S
Zr2855     O2864   2.355       .  S
Zr2855     O2867   2.358       .  S
Zr2855     O2865   2.385       .  S
O2856      H2876   0.990       .  S
O2856      H2881   0.990       .  S
O2857      H2877   0.990       .  S
Zr2858     O2859   2.431       .  S
Zr2858     O2860   2.434       .  S
Zr2858     O2864   2.416       .  S
Zr2858     O2863   2.319       .  S
Zr2858     O2868   2.350       .  S
Zr2858     O2866   2.402       .  S
O2859      H2875   0.990       .  S
O2860      H2874   0.990       .  S
O2860      H2884   0.990       .  S
Zr2861     O2864   2.402       .  S
Zr2861     O2866   2.402       .  S
Zr2861     O2867   2.375       .  S
Zr2862     O2863   2.395       .  S
Zr2862     O2865   2.378       .  S
Zr2862     O2868   2.393       .  S
O2863      H2871   0.961       .  S
O2866      H2870   0.965       .  S
O2867      H2872   0.966       .  S
O2885      C2887   1.270       .  A
O2886      C2887   1.299       .  A
C2887      C4021   1.462       .  S
O2888     Zr2900   2.411       .  S
O2888      C2890   1.282       .  A
O2889     Zr2924   2.432       .  S
O2889      C2890   1.288       .  A
C2890      C3045   1.454       .  S
O2891     Zr2900   2.499       .  S
O2891      C2893   1.297       .  A
O2892     Zr2923   2.418       .  S
O2892      C2893   1.286       .  A
C2893      C3794   1.506       .  S
O2894     Zr2897   2.413       .  S
O2894      C2896   1.279       .  A
O2895     Zr2924   2.408       .  S
O2895      C2896   1.283       .  A
C2896      C3010   1.476       .  S
Zr2897     O2898   2.435       .  S
Zr2897     O2903   2.391       .  S
Zr2897     O2904   2.332       .  S
O2898      H2941   0.989       .  S
O2899      H2940   0.990       .  S
O2899      H2944   0.990       .  S
Zr2900     O2901   2.433       .  S
Zr2900     O2902   2.429       .  S
Zr2900     O2904   2.396       .  S
Zr2900     O2903   2.363       .  S
Zr2900     O2928   2.343       .  S
Zr2900     O2930   2.394       .  S
O2901      H2942   0.990       .  S
O2901      H2945   0.990       .  S
O2902      H2935   0.990       .  S
O2903     Zr2923   2.378       .  S
O2904     Zr2924   2.387       .  S
O2904      H2931   0.966       .  S
O2905     Zr2917   2.386       .  S
O2905      C2907   1.270   1_655  A
O2906     Zr2924   2.526       .  S
C2907      C3317   1.490   1_455  S
O2908     Zr2920   2.476       .  S
O2908      C2910   1.298       .  A
O2909     Zr2923   2.403       .  S
O2909      C2910   1.283       .  A
C2910      C3026   1.483       .  S
O2911     Zr2920   2.616       .  S
O2911      C2913   1.323       .  A
O2912     Zr2924   2.306       .  S
O2912      C2913   1.266       .  A
C2913      C3189   1.510       .  S
O2914     Zr2917   2.399       .  S
O2914      C2916   1.280       .  A
O2915      C2916   1.286       .  A
C2916      C3125   1.466       .  S
Zr2917     O2918   2.463       .  S
Zr2917     O2919   2.435       .  S
Zr2917     O2929   2.332       .  S
Zr2917     O2927   2.391   1_655  S
O2918      H2938   0.986       .  S
O2918      H2943   0.990       .  S
O2919      H2939   0.990       .  S
Zr2920     O2921   2.437       .  S
Zr2920     O2922   2.434       .  S
Zr2920     O2926   2.411       .  S
Zr2920     O2925   2.312       .  S
Zr2920     O2930   2.334       .  S
Zr2920     O2928   2.390       .  S
O2921      H2937   0.990       .  S
O2922      H2936   0.990       .  S
O2922      H2946   0.990       .  S
Zr2923     O2926   2.392       .  S
Zr2923     O2928   2.417       .  S
Zr2924     O2925   2.361       .  S
Zr2924     O2930   2.401       .  S
O2925      H2933   0.953       .  S
O2928      H2932   0.964       .  S
O2929      H2934   0.964       .  S
O2947      C2949   1.269       .  A
O2948      C2949   1.300       .  A
C2949      C3893   1.473       .  S
O2950     Zr2962   2.407       .  S
O2950      C2952   1.282       .  A
O2951     Zr2986   2.442       .  S
O2951      C2952   1.290       .  A
C2952      C3077   1.467       .  S
O2953     Zr2962   2.506       .  S
O2953      C2955   1.299       .  A
O2954     Zr2985   2.415       .  S
O2954      C2955   1.284       .  A
C2955      C3698   1.514       .  S
O2956     Zr2959   2.459       .  S
O2956      C2958   1.291       .  A
O2957     Zr2986   2.380       .  S
O2957      C2958   1.276       .  A
C2958      C3029   1.479       .  S
Zr2959     O2960   2.428       .  S
Zr2959     O2965   2.400       .  S
Zr2959     O2966   2.347       .  S
Zr2959     O2989   2.338       .  S
O2960      H3003   0.989       .  S
O2961      H3002   0.990       .  S
O2961      H3006   0.990       .  S
Zr2962     O2963   2.433       .  S
Zr2962     O2964   2.432       .  S
Zr2962     O2966   2.404       .  S
Zr2962     O2965   2.358       .  S
Zr2962     O2990   2.341       .  S
Zr2962     O2992   2.389       .  S
O2963      H3004   0.990       .  S
O2963      H3007   0.990       .  S
O2964      H2997   0.990       .  S
O2965     Zr2985   2.378       .  S
O2966     Zr2986   2.384       .  S
O2966      H2993   0.966       .  S
O2967     Zr2979   2.363       .  S
O2968     Zr2986   2.495       .  S
O2968      C2969   1.278       .  A
O2970     Zr2982   2.447       .  S
O2970      C2972   1.290       .  A
O2971     Zr2985   2.416       .  S
O2971      C2972   1.289       .  A
C2972      C3013   1.472       .  S
O2973     Zr2982   2.611       .  S
O2973      C2975   1.319       .  A
O2974     Zr2986   2.334       .  S
O2974      C2975   1.257       .  A
C2975      C3157   1.516       .  S
O2976     Zr2979   2.396       .  S
O2976      C2978   1.277       .  A
O2977      C2978   1.284       .  A
C2978      C3058   1.454       .  S
Zr2979     O2980   2.434       .  S
Zr2979     O2981   2.429       .  S
Zr2979     O2991   2.330       .  S
O2980      H3000   0.985       .  S
O2980      H3005   0.988       .  S
O2981      H3001   0.990       .  S
Zr2982     O2983   2.433       .  S
Zr2982     O2984   2.434       .  S
Zr2982     O2988   2.420       .  S
Zr2982     O2987   2.313       .  S
Zr2982     O2992   2.330       .  S
Zr2982     O2990   2.413       .  S
O2983      H2999   0.990       .  S
O2984      H2998   0.990       .  S
O2984      H3008   0.990       .  S
Zr2985     O2988   2.400       .  S
Zr2985     O2990   2.409       .  S
Zr2986     O2987   2.410       .  S
Zr2986     O2989   2.377       .  S
Zr2986     O2992   2.380       .  S
O2987      H2995   0.959       .  S
O2990      H2994   0.965       .  S
O2991      H2996   0.962       .  S
C3009      C3010   1.405       .  A
C3009      C3014   1.405       .  A
C3009      H3016   1.083       .  S
C3010      C3011   1.423       .  A
C3011      C3012   1.397       .  A
C3011      C3018   1.523       .  S
C3012      C3013   1.400       .  A
C3012      H3017   1.084       .  S
C3013      C3014   1.416       .  A
C3014      C3015   1.517       .  S
C3015      F3019   1.385       .  S
C3015      F3020   1.383       .  S
C3015      F3021   1.382       .  S
C3018      F3023   1.384       .  S
C3018      F3024   1.385       .  S
C3025      C3026   1.400       .  A
C3025      C3030   1.402   1_545  A
C3025      H3032   1.084       .  S
C3026      C3027   1.425       .  A
C3027      C3028   1.403       .  A
C3027      C3034   1.519       .  S
C3028      C3029   1.400   1_545  A
C3028      H3033   1.083   1_545  S
C3029      C3030   1.421       .  A
C3030      C3031   1.515       .  S
C3031      F3035   1.385       .  S
C3031      F3036   1.379       .  S
C3031      F3037   1.384       .  S
C3034      F3038   1.378       .  S
C3041      C3042   1.401       .  A
C3041      C3046   1.400       .  A
C3041      H3048   1.084       .  S
C3042      C3043   1.412       .  A
C3043      C3044   1.399       .  A
C3043      C3050   1.517       .  S
C3044      C3045   1.399       .  A
C3044      H3049   1.084       .  S
C3045      C3046   1.414       .  A
C3046      C3047   1.519       .  S
C3047      F3051   1.385       .  S
C3047      F3052   1.380       .  S
C3047      F3053   1.381       .  S
C3050      F3054   1.383       .  S
C3050      F3055   1.380       .  S
C3050      F3056   1.385       .  S
C3057      C3058   1.400       .  A
C3057      C3062   1.401       .  A
C3057      H3064   1.084       .  S
C3058      C3059   1.419       .  A
C3059      C3060   1.391       .  A
C3059      C3066   1.520       .  S
C3060      C3061   1.396       .  A
C3060      H3065   1.086       .  S
C3061      C3062   1.418       .  A
C3062      C3063   1.519       .  S
C3063      F3067   1.385       .  S
C3063      F3068   1.381       .  S
C3063      F3069   1.383       .  S
C3066      F3070   1.384       .  S
C3066      F3071   1.378       .  S
C3066      F3072   1.383       .  S
C3073      C3074   1.406       .  A
C3073      C3078   1.403       .  A
C3073      H3080   1.084       .  S
C3074      C3075   1.413       .  A
C3075      C3076   1.403       .  A
C3075      C3082   1.520       .  S
C3076      C3077   1.406       .  A
C3076      H3081   1.084       .  S
C3077      C3078   1.410       .  A
C3078      C3079   1.519       .  S
C3079      F3083   1.384   1_565  S
C3079      F3084   1.383       .  S
C3079      F3085   1.384       .  S
C3082      F3086   1.383       .  S
C3082      F3087   1.383       .  S
C3082      F3088   1.385       .  S
C3089      C3090   1.401       .  A
C3089      C3094   1.405       .  A
C3089      H3096   1.083       .  S
C3090      C3091   1.414       .  A
C3091      C3092   1.400       .  A
C3091      C3098   1.513       .  S
C3092      C3093   1.397       .  A
C3092      H3097   1.084       .  S
C3093      C3094   1.414       .  A
C3094      C3095   1.517       .  S
C3095      F3099   1.384       .  S
C3095      F3100   1.383       .  S
C3095      F3101   1.383       .  S
C3098      F3102   1.383       .  S
C3098      F3103   1.378       .  S
C3098      F3104   1.384       .  S
C3105      C3106   1.407       .  A
C3105      C3110   1.401       .  A
C3105      H3112   1.083       .  S
C3106      C3107   1.416       .  A
C3107      C3108   1.401       .  A
C3107      C3114   1.520       .  S
C3108      C3109   1.407       .  A
C3108      H3113   1.083       .  S
C3109      C3110   1.414       .  A
C3110      C3111   1.519       .  S
C3111      F3115   1.385       .  S
C3111      F3116   1.383       .  S
C3111      F3117   1.382       .  S
C3114      F3118   1.382       .  S
C3114      F3119   1.382       .  S
C3114      F3120   1.385       .  S
C3121      C3122   1.402       .  A
C3121      C3126   1.399       .  A
C3121      H3128   1.084       .  S
C3122      C3123   1.410       .  A
C3123      C3124   1.401       .  A
C3123      C3130   1.517       .  S
C3124      C3125   1.406       .  A
C3124      H3129   1.084       .  S
C3125      C3126   1.417       .  A
C3126      C3127   1.521       .  S
C3127      F3131   1.385       .  S
C3127      F3132   1.381       .  S
C3127      F3133   1.381       .  S
C3130      F3134   1.383       .  S
C3130      F3135   1.381       .  S
C3130      F3136   1.384       .  S
C3137      C3138   1.409   1_545  A
C3137      C3142   1.401       .  A
C3137      H3144   1.084       .  S
C3138      C3139   1.407       .  A
C3139      C3140   1.410   1_565  A
C3139      C3146   1.518       .  S
C3140      C3141   1.408       .  A
C3140      H3145   1.072   1_545  S
C3141      C3142   1.412       .  A
C3142      C3143   1.522       .  S
C3143      F3147   1.385       .  S
C3143      F3148   1.381       .  S
C3143      F3149   1.383       .  S
C3146      F3150   1.383       .  S
C3146      F3151   1.383       .  S
C3146      F3152   1.381       .  S
C3153      C3154   1.391       .  A
C3153      C3158   1.391       .  A
C3153      H3160   1.085       .  S
C3154      C3155   1.437       .  A
C3155      C3156   1.428       .  A
C3155      C3162   1.521       .  S
C3156      C3157   1.409       .  A
C3156      H3161   1.083       .  S
C3157      C3158   1.442       .  A
C3158      C3159   1.526       .  S
C3159      F3163   1.381       .  S
C3159      F3164   1.370       .  S
C3159      F3165   1.388       .  S
C3162      F3166   1.384       .  S
C3162      F3167   1.376       .  S
C3162      F3168   1.385       .  S
C3169      C3170   1.407       .  A
C3169      C3174   1.409       .  A
C3169      H3176   1.081       .  S
C3170      C3171   1.414       .  A
C3171      C3172   1.408       .  A
C3171      C3178   1.516       .  S
C3172      C3173   1.407       .  A
C3172      H3177   1.076       .  S
C3173      C3174   1.416       .  A
C3174      C3175   1.523       .  S
C3175      F3179   1.384       .  S
C3175      F3180   1.379       .  S
C3175      F3181   1.383       .  S
C3178      F3182   1.380       .  S
C3178      F3183   1.381       .  S
C3178      F3184   1.381       .  S
C3185      C3186   1.415       .  A
C3185      C3190   1.431       .  A
C3185      H3192   1.081       .  S
C3186      C3187   1.424       .  A
C3187      C3188   1.420       .  A
C3187      C3194   1.522       .  S
C3188      C3189   1.413       .  A
C3188      H3193   1.079       .  S
C3189      C3190   1.419       .  A
C3190      C3191   1.514       .  S
C3191      F3195   1.384       .  S
C3191      F3196   1.383       .  S
C3191      F3197   1.375       .  S
C3194      F3198   1.382       .  S
C3194      F3199   1.384       .  S
C3194      F3200   1.385       .  S
C3201      C3202   1.404       .  A
C3201      C3206   1.400       .  A
C3201      H3208   1.082       .  S
C3202      C3203   1.424       .  A
C3203      C3204   1.408       .  A
C3203      C3210   1.522       .  S
C3204      C3205   1.408       .  A
C3204      H3209   1.082       .  S
C3205      C3206   1.419       .  A
C3206      C3207   1.508       .  S
C3207      F3211   1.385       .  S
C3207      F3212   1.376       .  S
C3207      F3213   1.377       .  S
C3210      F3214   1.383       .  S
C3210      F3215   1.384       .  S
C3210      F3216   1.385       .  S
C3217      C3218   1.398       .  A
C3217      C3222   1.389       .  A
C3217      H3224   1.083       .  S
C3218      C3219   1.416       .  A
C3219      C3220   1.408       .  A
C3219      C3226   1.516       .  S
C3220      C3221   1.404       .  A
C3220      H3225   1.083       .  S
C3221      C3222   1.410       .  A
C3222      C3223   1.512       .  S
C3223      F3227   1.383       .  S
C3223      F3228   1.382       .  S
C3223      F3229   1.383       .  S
C3226      F3230   1.383       .  S
C3226      F3231   1.383       .  S
C3226      F3232   1.385       .  S
C3233      C3234   1.410       .  A
C3233      C3238   1.427       .  A
C3233      H3240   1.076       .  S
C3234      C3235   1.421       .  A
C3235      C3236   1.415       .  A
C3235      C3242   1.515       .  S
C3236      C3237   1.411       .  A
C3236      H3241   1.084       .  S
C3237      C3238   1.427       .  A
C3238      C3239   1.517       .  S
C3239      F3243   1.384       .  S
C3239      F3244   1.382       .  S
C3239      F3245   1.384       .  S
C3242      F3246   1.383       .  S
C3242      F3247   1.383       .  S
C3242      F3248   1.384       .  S
C3249      C3250   1.391       .  A
C3250      C3251   1.416       .  A
C3251      C3252   1.402       .  A
C3251      C3258   1.520       .  S
C3252      C3253   1.411       .  A
C3252      H3257   1.085       .  S
C3254      C3255   1.515       .  S
C3255      F3259   1.384       .  S
C3255      F3260   1.382       .  S
C3255      F3261   1.353       .  S
C3258      F3262   1.383       .  S
C3258      F3263   1.382       .  S
C3258      F3264   1.383       .  S
C3265      C3266   1.393       .  A
C3265      C3270   1.400       .  A
C3266      C3267   1.412       .  A
C3267      C3268   1.404       .  A
C3267      C3274   1.504       .  S
C3268      C3269   1.397       .  A
C3268      H3273   1.083       .  S
C3269      C3270   1.413       .  A
C3270      C3271   1.505       .  S
C3271      F3275   1.379       .  S
C3271      F3276   1.377       .  S
C3271      F3277   1.382       .  S
C3274      F3278   1.384       .  S
C3274      F3280   1.383       .  S
C3281      C3282   1.403       .  A
C3281      C3286   1.396       .  A
C3281      H3288   1.083       .  S
C3282      C3283   1.417       .  A
C3283      C3284   1.402       .  A
C3283      C3290   1.520       .  S
C3284      C3285   1.405       .  A
C3284      H3289   1.083       .  S
C3285      C3286   1.414       .  A
C3286      C3287   1.515       .  S
C3287      F3291   1.385       .  S
C3287      F3292   1.383       .  S
C3287      F3293   1.381       .  S
C3290      F3294   1.383       .  S
C3290      F3295   1.382       .  S
C3290      F3296   1.385       .  S
C3297      C3298   1.406       .  A
C3297      C3302   1.415       .  A
C3297      H3304   1.085       .  S
C3298      C3299   1.427       .  A
C3299      C3300   1.426       .  A
C3299      C3306   1.519       .  S
C3300      C3301   1.413       .  A
C3300      H3305   1.083       .  S
C3301      C3302   1.422       .  A
C3302      C3303   1.506       .  S
C3303      F3307   1.384   1_545  S
C3303      F3308   1.379   1_545  S
C3303      F3309   1.382       .  S
C3306      F3310   1.382       .  S
C3306      F3311   1.384       .  S
C3306      F3312   1.385       .  S
C3313      C3314   1.374       .  A
C3313      C3318   1.388       .  A
C3313      H3320   1.082       .  S
C3314      C3315   1.426       .  A
C3315      C3316   1.409   1_655  A
C3315      C3322   1.511   1_655  S
C3316      C3317   1.398   1_455  A
C3316      H3321   1.084       .  S
C3317      C3318   1.443       .  A
C3318      C3319   1.510       .  S
C3319      F3323   1.386       .  S
C3319      F3324   1.368   1_655  S
C3319      F3325   1.374       .  S
C3322      F3326   1.383   1_455  S
C3322      F3327   1.382   1_455  S
C3322      F3328   1.384       .  S
C3329      C3334   1.407       .  A
C3329      H3336   1.083       .  S
C3330      C3331   1.420       .  A
C3331      C3338   1.521       .  S
C3332      C3333   1.401       .  A
C3332      H3337   1.083   1_545  S
C3333      C3334   1.417       .  A
C3334      C3335   1.518       .  S
C3335      F3339   1.385       .  S
C3335      F3340   1.383       .  S
C3335      F3341   1.382       .  S
C3338      F3342   1.382       .  S
C3338      F3343   1.383       .  S
C3338      F3344   1.385   1_545  S
C3345      C3346   1.401       .  A
C3345      C3350   1.404       .  A
C3345      H3352   1.083       .  S
C3346      C3347   1.415       .  A
C3347      C3348   1.394       .  A
C3347      C3354   1.512   1_565  S
C3348      C3349   1.400       .  A
C3348      H3353   1.083       .  S
C3349      C3350   1.421       .  A
C3350      C3351   1.520       .  S
C3351      F3355   1.385       .  S
C3351      F3356   1.383       .  S
C3351      F3357   1.383       .  S
C3354      F3358   1.382       .  S
C3354      F3359   1.385   1_545  S
C3354      F3360   1.379       .  S
C3361      C3362   1.400       .  A
C3361      C3366   1.398       .  A
C3361      H3368   1.083       .  S
C3362      C3363   1.425       .  A
C3363      C3364   1.400       .  A
C3363      C3370   1.522       .  S
C3364      C3365   1.398       .  A
C3364      H3369   1.084       .  S
C3365      C3366   1.421       .  A
C3366      C3367   1.523       .  S
C3367      F3371   1.385       .  S
C3367      F3372   1.383       .  S
C3367      F3373   1.383       .  S
C3370      F3374   1.383       .  S
C3370      F3375   1.381       .  S
C3370      F3376   1.383       .  S
C3377      C3378   1.399       .  A
C3377      C3382   1.400       .  A
C3377      H3384   1.085       .  S
C3378      C3379   1.421       .  A
C3379      C3380   1.401       .  A
C3379      C3386   1.522       .  S
C3380      C3381   1.400       .  A
C3380      H3385   1.085       .  S
C3381      C3382   1.418       .  A
C3382      C3383   1.520       .  S
C3383      F3387   1.385       .  S
C3383      F3388   1.381       .  S
C3383      F3389   1.382       .  S
C3386      F3390   1.382       .  S
C3386      F3391   1.383       .  S
C3386      F3392   1.385       .  S
C3393      C3394   1.412       .  A
C3393      C3398   1.404       .  A
C3394      C3395   1.428       .  A
C3395      C3396   1.414       .  A
C3395      C3402   1.511       .  S
C3396      C3397   1.400       .  A
C3396      H3401   1.083       .  S
C3397      C3398   1.417       .  A
C3398      C3399   1.516       .  S
C3399      F3404   1.383       .  S
C3399      F3405   1.383       .  S
C3402      F3406   1.383       .  S
C3402      F3407   1.382       .  S
C3402      F3408   1.379       .  S
C3409      C3410   1.405       .  A
C3409      C3414   1.425       .  A
C3409      H3416   1.084       .  S
C3410      C3411   1.437       .  A
C3411      C3412   1.409       .  A
C3411      C3418   1.512       .  S
C3412      C3413   1.390       .  A
C3412      H3417   1.084       .  S
C3413      C3414   1.434       .  A
C3414      C3415   1.520       .  S
C3415      F3419   1.376       .  S
C3415      F3420   1.381       .  S
C3415      F3421   1.382       .  S
C3418      F3422   1.380       .  S
C3418      F3423   1.376       .  S
C3418      F3424   1.385       .  S
C3425      C3426   1.408       .  A
C3425      C3430   1.420       .  A
C3425      H3432   1.084       .  S
C3426      C3427   1.426       .  A
C3427      C3428   1.407       .  A
C3427      C3434   1.519       .  S
C3428      C3429   1.402       .  A
C3428      H3433   1.086       .  S
C3429      C3430   1.432       .  A
C3430      C3431   1.519       .  S
C3431      F3435   1.375       .  S
C3431      F3436   1.384       .  S
C3431      F3437   1.377       .  S
C3434      F3438   1.382       .  S
C3434      F3439   1.380       .  S
C3434      F3440   1.384       .  S
C3441      C3442   1.421       .  A
C3441      C3446   1.440       .  A
C3441      H3448   1.082       .  S
C3442      C3443   1.415       .  A
C3443      C3444   1.395       .  A
C3443      C3450   1.522   1_565  S
C3444      C3445   1.414       .  A
C3444      H3449   1.085       .  S
C3445      C3446   1.422       .  A
C3446      C3447   1.510       .  S
C3447      F3451   1.384       .  S
C3447      F3452   1.383       .  S
C3447      F3453   1.383       .  S
C3450      F3454   1.382       .  S
C3450      F3455   1.384       .  S
C3450      F3456   1.385       .  S
C3457      C3462   1.419       .  A
C3457      H3464   1.083       .  S
C3458      C3459   1.420       .  A
C3459      C3460   1.417       .  A
C3459      C3466   1.518       .  S
C3460      C3461   1.405       .  A
C3460      H3465   1.073       .  S
C3462      C3463   1.518       .  S
C3463      F3467   1.385       .  S
C3463      F3468   1.382       .  S
C3463      F3469   1.383       .  S
C3466      F3470   1.384       .  S
C3466      F3471   1.384       .  S
C3466      F3472   1.381       .  S
C3473      C3474   1.411       .  A
C3473      C3478   1.413       .  A
C3473      H3480   1.079       .  S
C3475      C3476   1.403       .  A
C3475      C3482   1.519   1_554  S
C3476      H3481   1.084   1_554  S
C3477      C3478   1.411       .  A
C3478      C3479   1.515       .  S
C3479      F3483   1.384       .  S
C3479      F3484   1.383       .  S
C3479      F3485   1.384       .  S
C3482      F3486   1.383   1_556  S
C3482      F3487   1.382       .  S
C3482      F3488   1.384       .  S
C3489      C3490   1.404       .  A
C3489      C3494   1.413       .  A
C3489      H3496   1.083       .  S
C3490      C3491   1.424       .  A
C3491      C3492   1.404       .  A
C3491      C3498   1.518       .  S
C3492      C3493   1.397       .  A
C3492      H3497   1.085       .  S
C3493      C3494   1.416       .  A
C3494      C3495   1.514       .  S
C3495      F3499   1.384       .  S
C3495      F3500   1.379       .  S
C3495      F3501   1.382       .  S
C3498      F3502   1.384       .  S
C3498      F3503   1.381       .  S
C3498      F3504   1.383       .  S
C3505      C3506   1.384       .  A
C3505      C3510   1.399       .  A
C3505      H3512   1.083       .  S
C3506      C3507   1.431       .  A
C3507      C3508   1.417       .  A
C3507      C3514   1.516       .  S
C3508      C3509   1.403       .  A
C3508      H3513   1.084       .  S
C3509      C3510   1.441       .  A
C3510      C3511   1.509       .  S
C3511      F3515   1.387       .  S
C3511      F3516   1.377       .  S
C3511      F3517   1.364       .  S
C3514      F3518   1.382       .  S
C3514      F3519   1.380       .  S
C3514      F3520   1.384       .  S
C3521      C3522   1.402       .  A
C3521      C3526   1.408       .  A
C3521      H3528   1.080       .  S
C3522      C3523   1.412       .  A
C3523      C3524   1.399       .  A
C3523      C3530   1.518       .  S
C3524      C3525   1.407       .  A
C3524      H3529   1.084       .  S
C3525      C3526   1.413       .  A
C3526      C3527   1.511       .  S
C3527      F3531   1.385       .  S
C3527      F3532   1.374       .  S
C3527      F3533   1.383       .  S
C3530      F3534   1.381   1_556  S
C3530      F3535   1.382       .  S
C3530      F3536   1.385       .  S
C3537      C3538   1.404       .  A
C3537      C3542   1.411   1_556  A
C3537      H3544   1.083   1_556  S
C3538      C3539   1.418       .  A
C3539      C3540   1.412       .  A
C3539      C3546   1.508   1_565  S
C3540      C3541   1.402       .  A
C3540      H3545   1.083       .  S
C3541      C3542   1.416   1_556  A
C3542      C3543   1.513       .  S
C3543      F3547   1.384       .  S
C3543      F3548   1.383       .  S
C3543      F3549   1.383       .  S
C3546      F3550   1.383       .  S
C3546      F3551   1.382       .  S
C3546      F3552   1.384       .  S
C3553      C3554   1.414       .  A
C3553      C3558   1.430       .  A
C3553      H3560   1.083       .  S
C3554      C3555   1.412       .  A
C3555      C3556   1.409       .  A
C3555      C3562   1.521       .  S
C3556      C3557   1.418       .  A
C3556      H3561   1.083       .  S
C3557      C3558   1.420       .  A
C3558      C3559   1.513       .  S
C3559      F3563   1.384       .  S
C3559      F3564   1.380       .  S
C3559      F3565   1.383       .  S
C3562      F3566   1.383       .  S
C3562      F3567   1.383       .  S
C3562      F3568   1.385       .  S
C3569      C3570   1.400       .  A
C3569      C3574   1.420       .  A
C3569      H3576   1.083       .  S
C3570      C3571   1.450       .  A
C3571      C3572   1.403       .  A
C3571      C3578   1.515       .  S
C3572      C3573   1.383       .  A
C3572      H3577   1.087       .  S
C3573      C3574   1.428       .  A
C3574      C3575   1.501       .  S
C3575      F3579   1.377       .  S
C3575      F3580   1.385       .  S
C3575      F3581   1.374       .  S
C3578      F3582   1.385       .  S
C3578      F3583   1.349       .  S
C3578      F3584   1.385       .  S
C3585      C3586   1.407       .  A
C3585      C3590   1.408       .  A
C3585      H3592   1.083       .  S
C3586      C3587   1.415       .  A
C3587      C3588   1.411       .  A
C3587      C3594   1.514       .  S
C3588      C3589   1.409       .  A
C3588      H3593   1.083       .  S
C3589      C3590   1.419       .  A
C3590      C3591   1.517       .  S
C3591      F3595   1.385       .  S
C3591      F3596   1.378       .  S
C3591      F3597   1.383       .  S
C3594      F3598   1.380   1_556  S
C3594      F3599   1.384       .  S
C3594      F3600   1.385       .  S
C3601      C3602   1.397       .  A
C3601      C3606   1.406       .  A
C3601      H3608   1.085       .  S
C3602      C3603   1.420   1_554  A
C3603      C3604   1.400       .  A
C3603      C3610   1.519       .  S
C3604      C3605   1.396       .  A
C3604      H3609   1.079       .  S
C3605      C3606   1.426   1_556  A
C3606      C3607   1.518       .  S
C3607      F3611   1.384       .  S
C3607      F3612   1.377       .  S
C3607      F3613   1.383       .  S
C3610      F3614   1.382       .  S
C3610      F3615   1.383       .  S
C3610      F3616   1.384       .  S
C3617      C3618   1.401       .  A
C3617      C3622   1.410       .  A
C3617      H3624   1.083       .  S
C3618      C3619   1.426   1_556  A
C3619      C3620   1.402       .  A
C3619      C3626   1.517       .  S
C3620      C3621   1.396   1_544  A
C3620      H3625   1.083   1_545  S
C3621      C3622   1.427   1_565  A
C3622      C3623   1.521       .  S
C3623      F3627   1.385       .  S
C3623      F3628   1.382   1_545  S
C3623      F3629   1.384   1_545  S
C3626      F3630   1.382       .  S
C3626      F3631   1.381       .  S
C3626      F3632   1.385       .  S
C3633      C3634   1.397       .  A
C3633      C3638   1.403       .  A
C3633      H3640   1.085       .  S
C3634      C3635   1.419       .  A
C3635      C3636   1.415       .  A
C3635      C3642   1.515       .  S
C3636      C3637   1.405       .  A
C3636      H3641   1.084       .  S
C3637      C3638   1.424       .  A
C3638      C3639   1.516       .  S
C3639      F3643   1.382       .  S
C3639      F3644   1.381   1_554  S
C3639      F3645   1.381       .  S
C3642      F3646   1.382   1_554  S
C3642      F3647   1.382       .  S
C3642      F3648   1.384       .  S
C3649      C3650   1.402       .  A
C3649      C3654   1.410       .  A
C3649      H3656   1.083       .  S
C3650      C3651   1.422       .  A
C3651      C3652   1.429       .  A
C3651      C3658   1.514       .  S
C3652      C3653   1.415       .  A
C3652      H3657   1.082       .  S
C3653      C3654   1.428       .  A
C3654      C3655   1.520       .  S
C3655      F3659   1.385       .  S
C3655      F3660   1.381       .  S
C3655      F3661   1.384       .  S
C3658      F3662   1.383       .  S
C3658      F3663   1.383       .  S
C3658      F3664   1.384       .  S
C3665      C3666   1.408       .  A
C3665      C3670   1.426       .  A
C3665      H3672   1.083       .  S
C3666      C3667   1.428       .  A
C3667      C3668   1.397       .  A
C3667      C3674   1.512       .  S
C3668      C3669   1.395       .  A
C3668      H3673   1.086       .  S
C3669      C3670   1.423       .  A
C3670      C3671   1.507       .  S
C3671      F3675   1.385       .  S
C3671      F3676   1.383       .  S
C3671      F3677   1.380       .  S
C3674      F3679   1.369       .  S
C3681      C3682   1.393       .  A
C3681      C3686   1.417       .  A
C3681      H3688   1.085       .  S
C3682      C3683   1.416       .  A
C3683      C3684   1.401       .  A
C3683      C3690   1.519       .  S
C3684      C3685   1.413       .  A
C3684      H3689   1.085       .  S
C3685      C3686   1.445       .  A
C3686      C3687   1.502       .  S
C3687      F3691   1.385       .  S
C3687      F3692   1.357       .  S
C3687      F3693   1.382       .  S
C3690      F3694   1.384       .  S
C3690      F3695   1.382       .  S
C3690      F3696   1.382       .  S
C3697      C3698   1.415       .  A
C3697      C3702   1.418       .  A
C3697      H3704   1.084       .  S
C3698      C3699   1.421       .  A
C3699      C3700   1.411       .  A
C3699      C3706   1.518       .  S
C3700      C3701   1.408       .  A
C3700      H3705   1.079       .  S
C3701      C3702   1.415       .  A
C3702      C3703   1.512       .  S
C3703      F3708   1.383       .  S
C3703      F3709   1.382       .  S
C3706      F3710   1.384       .  S
C3706      F3711   1.382       .  S
C3706      F3712   1.385       .  S
C3713      C3714   1.421       .  A
C3713      C3718   1.422       .  A
C3713      H3720   1.083       .  S
C3714      C3715   1.416       .  A
C3715      C3716   1.410       .  A
C3715      C3722   1.520       .  S
C3716      C3717   1.413       .  A
C3716      H3721   1.078       .  S
C3717      C3718   1.415       .  A
C3718      C3719   1.520       .  S
C3719      F3723   1.384       .  S
C3719      F3724   1.383       .  S
C3719      F3725   1.378       .  S
C3722      F3726   1.377       .  S
C3722      F3727   1.383       .  S
C3722      F3728   1.384       .  S
C3729      C3730   1.408       .  A
C3729      C3734   1.404       .  A
C3729      H3736   1.075       .  S
C3730      C3731   1.417   1_545  A
C3731      C3732   1.435   1_565  A
C3731      C3738   1.511       .  S
C3732      C3733   1.422       .  A
C3732      H3737   1.082   1_545  S
C3733      C3734   1.426       .  A
C3734      C3735   1.525       .  S
C3735      F3739   1.385       .  S
C3735      F3740   1.382       .  S
C3735      F3741   1.382       .  S
C3738      F3742   1.383       .  S
C3738      F3743   1.383       .  S
C3738      F3744   1.384       .  S
C3745      C3746   1.399       .  A
C3745      C3750   1.400       .  A
C3745      H3752   1.085       .  S
C3746      C3747   1.424       .  A
C3747      C3748   1.402       .  A
C3747      C3754   1.520       .  S
C3748      C3749   1.399       .  A
C3748      H3753   1.085       .  S
C3749      C3750   1.419       .  A
C3750      C3751   1.519       .  S
C3751      F3755   1.385       .  S
C3751      F3756   1.383       .  S
C3751      F3757   1.382       .  S
C3754      F3758   1.383       .  S
C3754      F3759   1.378       .  S
C3754      F3760   1.384       .  S
C3761      C3762   1.416       .  A
C3761      C3766   1.402       .  A
C3761      H3768   1.081       .  S
C3762      C3763   1.422       .  A
C3763      C3764   1.401       .  A
C3763      C3770   1.521       .  S
C3764      C3765   1.408       .  A
C3764      H3769   1.081       .  S
C3765      C3766   1.418       .  A
C3766      C3767   1.526       .  S
C3767      F3771   1.385       .  S
C3767      F3772   1.384       .  S
C3767      F3773   1.381       .  S
C3770      F3774   1.377       .  S
C3770      F3775   1.375       .  S
C3770      F3776   1.385       .  S
C3777      C3778   1.415       .  A
C3777      C3782   1.424       .  A
C3777      H3784   1.081       .  S
C3778      C3779   1.401       .  A
C3779      C3780   1.404       .  A
C3779      C3786   1.516       .  S
C3780      C3781   1.413       .  A
C3780      H3785   1.072       .  S
C3781      C3782   1.415       .  A
C3782      C3783   1.516   1_545  S
C3783      F3787   1.382       .  S
C3783      F3788   1.383       .  S
C3783      F3789   1.384       .  S
C3786      F3790   1.383       .  S
C3786      F3791   1.382       .  S
C3786      F3792   1.384       .  S
C3793      C3794   1.408       .  A
C3793      C3798   1.408       .  A
C3793      H3800   1.084       .  S
C3794      C3795   1.427       .  A
C3795      C3796   1.417       .  A
C3795      C3802   1.517       .  S
C3796      C3797   1.405       .  A
C3796      H3801   1.084       .  S
C3797      C3798   1.416       .  A
C3798      C3799   1.515       .  S
C3799      F3803   1.383       .  S
C3799      F3804   1.384       .  S
C3799      F3805   1.382       .  S
C3802      F3806   1.383       .  S
C3802      F3807   1.379       .  S
C3802      F3808   1.385       .  S
C3809      C3810   1.418       .  A
C3809      C3814   1.416       .  A
C3809      H3816   1.082       .  S
C3810      C3811   1.434       .  A
C3811      C3812   1.400       .  A
C3811      C3818   1.524       .  S
C3812      C3813   1.396       .  A
C3812      H3817   1.082       .  S
C3813      C3814   1.409       .  A
C3814      C3815   1.514       .  S
C3815      F3819   1.384       .  S
C3815      F3820   1.380       .  S
C3815      F3821   1.383       .  S
C3818      F3822   1.382       .  S
C3818      F3823   1.381       .  S
C3818      F3824   1.386       .  S
C3825      C3826   1.404       .  A
C3825      C3830   1.404   1_565  A
C3825      H3832   1.079       .  S
C3826      C3827   1.417       .  A
C3827      C3828   1.425       .  A
C3827      C3834   1.512       .  S
C3828      C3829   1.414   1_565  A
C3829      C3830   1.418       .  A
C3830      C3831   1.521       .  S
C3831      F3835   1.384       .  S
C3831      F3836   1.383       .  S
C3831      F3837   1.384       .  S
C3834      F3838   1.383       .  S
C3834      F3839   1.379       .  S
C3841      C3842   1.398       .  A
C3841      C3846   1.401   1_655  A
C3841      H3848   1.085       .  S
C3843      C3844   1.399       .  A
C3843      C3850   1.519       .  S
C3844      C3845   1.397       .  A
C3844      H3849   1.085       .  S
C3846      C3847   1.518       .  S
C3847      F3851   1.384   1_455  S
C3847      F3853   1.382       .  S
C3850      F3854   1.383       .  S
C3850      F3856   1.383       .  S
C3857      C3858   1.400   1_565  A
C3857      C3862   1.403       .  A
C3857      H3864   1.082       .  S
C3858      C3859   1.418       .  A
C3859      C3860   1.408       .  A
C3859      C3866   1.518       .  S
C3860      C3861   1.403       .  A
C3860      H3865   1.085       .  S
C3861      C3862   1.417   1_545  A
C3862      C3863   1.517       .  S
C3863      F3867   1.384       .  S
C3863      F3868   1.380       .  S
C3863      F3869   1.383       .  S
C3866      F3870   1.383       .  S
C3866      F3871   1.382       .  S
C3866      F3872   1.383       .  S
C3873      C3874   1.414       .  A
C3873      C3878   1.418       .  A
C3873      H3880   1.082       .  S
C3874      C3875   1.429       .  A
C3875      C3876   1.410       .  A
C3875      C3882   1.520       .  S
C3876      C3877   1.401       .  A
C3876      H3881   1.081       .  S
C3877      C3878   1.413       .  A
C3878      C3879   1.515       .  S
C3879      F3883   1.384       .  S
C3879      F3884   1.383       .  S
C3879      F3885   1.381       .  S
C3882      F3886   1.382       .  S
C3882      F3887   1.382       .  S
C3882      F3888   1.386       .  S
C3889      C3890   1.410       .  A
C3889      C3894   1.416       .  A
C3889      H3896   1.081       .  S
C3890      C3891   1.423       .  A
C3891      C3892   1.404       .  A
C3891      C3898   1.521       .  S
C3892      C3893   1.401       .  A
C3893      C3894   1.416       .  A
C3894      C3895   1.514       .  S
C3895      F3899   1.385       .  S
C3895      F3900   1.380       .  S
C3895      F3901   1.383       .  S
C3898      F3902   1.384       .  S
C3898      F3903   1.379       .  S
C3905      C3906   1.410       .  A
C3905      C3910   1.419       .  A
C3905      H3912   1.083       .  S
C3906      C3907   1.423       .  A
C3907      C3908   1.404       .  A
C3907      C3914   1.520       .  S
C3908      C3909   1.401       .  A
C3908      H3913   1.081       .  S
C3909      C3910   1.413       .  A
C3910      C3911   1.516       .  S
C3911      F3915   1.384       .  S
C3911      F3916   1.383       .  S
C3911      F3917   1.381       .  S
C3914      F3918   1.380       .  S
C3914      F3919   1.383       .  S
C3914      F3920   1.385       .  S
C3921      C3922   1.398       .  A
C3921      C3926   1.410       .  A
C3921      H3928   1.083       .  S
C3922      C3923   1.417       .  A
C3923      C3924   1.398       .  A
C3923      C3930   1.504       .  S
C3924      C3925   1.396       .  A
C3924      H3929   1.086       .  S
C3925      C3926   1.430       .  A
C3926      C3927   1.521       .  S
C3927      F3931   1.384       .  S
C3927      F3932   1.380       .  S
C3927      F3933   1.381       .  S
C3930      F3934   1.375   1_655  S
C3937      C3942   1.418       .  A
C3938      C3939   1.419       .  A
C3939      C3946   1.509       .  S
C3940      C3941   1.400       .  A
C3940      H3945   1.084       .  S
C3941      C3942   1.418       .  A
C3942      C3943   1.515       .  S
C3943      F3947   1.384       .  S
C3943      F3948   1.383       .  S
C3943      F3949   1.378       .  S
C3946      F3950   1.376       .  S
C3946      F3951   1.382       .  S
C3946      F3952   1.385       .  S
C3953      C3954   1.408       .  A
C3953      C3958   1.404       .  A
C3953      H3960   1.083       .  S
C3954      C3955   1.414       .  A
C3955      C3956   1.402       .  A
C3955      C3962   1.518       .  S
C3956      C3957   1.410       .  A
C3956      H3961   1.083       .  S
C3957      C3958   1.419       .  A
C3958      C3959   1.522       .  S
C3959      F3963   1.385       .  S
C3959      F3964   1.383       .  S
C3959      F3965   1.384       .  S
C3962      F3966   1.383       .  S
C3962      F3967   1.382       .  S
C3962      F3968   1.385       .  S
C3969      C3970   1.403       .  A
C3969      C3974   1.400       .  A
C3969      H3976   1.083       .  S
C3970      C3971   1.415       .  A
C3971      C3972   1.389       .  A
C3971      C3978   1.517       .  S
C3972      C3973   1.398       .  A
C3972      H3977   1.074       .  S
C3973      C3974   1.420       .  A
C3974      C3975   1.520       .  S
C3975      F3979   1.385       .  S
C3975      F3980   1.384       .  S
C3975      F3981   1.382       .  S
C3978      F3982   1.380       .  S
C3978      F3983   1.382       .  S
C3978      F3984   1.382       .  S
C3985      C3986   1.395       .  A
C3985      C3990   1.398       .  A
C3985      H3992   1.085       .  S
C3986      C3987   1.417       .  A
C3987      C3988   1.403       .  A
C3987      C3994   1.518       .  S
C3988      C3989   1.399       .  A
C3988      H3993   1.083       .  S
C3989      C3990   1.421       .  A
C3990      C3991   1.520       .  S
C3991      F3995   1.380       .  S
C3991      F3996   1.384       .  S
C3991      F3997   1.379       .  S
C3994      F3998   1.380       .  S
C3994      F3999   1.383       .  S
C3994      F4000   1.385       .  S
C4001      C4002   1.413       .  A
C4001      C4006   1.426       .  A
C4001      H4008   1.083       .  S
C4002      C4003   1.418       .  A
C4003      C4004   1.409       .  A
C4003      C4010   1.518       .  S
C4004      C4005   1.408       .  A
C4004      H4009   1.084       .  S
C4005      C4006   1.418       .  A
C4006      C4007   1.516       .  S
C4007      F4011   1.384       .  S
C4007      F4012   1.379       .  S
C4007      F4013   1.383       .  S
C4010      F4014   1.382       .  S
C4010      F4015   1.383       .  S
C4010      F4016   1.382       .  S
C4017      C4018   1.412       .  A
C4017      C4022   1.400       .  A
C4017      H4024   1.076       .  S
C4018      C4019   1.415       .  A
C4019      C4020   1.418       .  A
C4019      C4026   1.521       .  S
C4020      C4021   1.415       .  A
C4020      H4025   1.084       .  S
C4021      C4022   1.403       .  A
C4022      C4023   1.525       .  S
C4023      F4027   1.385       .  S
C4023      F4028   1.384       .  S
C4026      F4030   1.376       .  S
C4026      F4031   1.383       .  S
C4026      F4032   1.385       .  S
