geometry optimzed in LAMMPS
_audit_creation_date              2020-11-30 
_audit_creation_method            'lammps2cif' 
_symmetry_space_group_name_H-M    'P1' 
_symmetry_Int_Tables_number       1 
_symmetry_cell_setting            triclinic 
loop_ 
_symmetry_equiv_pos_as_xyz 
  x,y,z 
_cell_length_a                    31.16702617 
_cell_length_b                    31.010591847220645 
_cell_length_c                    38.4430267329976 
_cell_angle_alpha                 88.9591192327375 
_cell_angle_beta                  89.72259599538177 
_cell_angle_gamma                 89.76862279112628 
loop_ 
_atom_site_label 
_atom_site_type_symbol 
_atom_site_fract_x 
_atom_site_fract_y 
_atom_site_fract_z 
_atom_site_charge 
In1        In  0.24687606  0.53828846  0.74518295     1.36900
C2          C  0.30934958  0.59599689  0.73375543     0.78000
O3          O  0.17973185  0.56627366  0.73552698    -0.60500
O4          O  0.21894110  0.59328325  0.77434298    -0.51400
C5          C  0.23323115  0.49235986  0.68793499     0.70600
O6          O  0.26172775  0.52070528  0.69000329    -0.46300
C7          C  0.26011110  0.49151637  0.80315670     0.75300
O8          O  0.31768932  0.55988326  0.74793075    -0.58100
O9          O  0.28850607  0.49701290  0.78005787    -0.48200
O10         O  0.27100559  0.60033667  0.72408875    -0.54500
C11         C  0.18466828  0.59594826  0.75715282     0.85500
O12         O  0.21362429  0.48543523  0.71618524    -0.56400
O13         O  0.22418330  0.50742252  0.79524258    -0.59700
C14         C  0.09406764  0.67536456  0.74973581     0.80600
N15         N  0.11754814  0.71279584  0.75038020    -0.77700
C16         C  0.16074619  0.71117127  0.75603493     0.83000
N17         N  0.18014650  0.67258002  0.76031424    -0.77700
C18         C  0.15835907  0.63536067  0.75802348     0.83100
N19         N  0.11518780  0.63652061  0.75253453    -0.79400
C20         C  0.40509993  0.66954290  0.73516774     0.80600
N21         N  0.38195791  0.63183295  0.73470960    -0.77700
C22         C  0.33832614  0.63342827  0.73165059     0.83000
N23         N  0.31856893  0.67195760  0.72933401    -0.77700
C24         C  0.34012172  0.70924486  0.73117123     0.83100
N25         N  0.38366997  0.70837561  0.73436558    -0.79400
In26       In  0.25192975  0.80695444  0.74416127     1.36900
C27         C  0.31319033  0.74818030  0.73274269     0.78000
O28         O  0.28975952  0.85199086  0.77798742    -0.60500
O29         O  0.22938926  0.83105229  0.79609767    -0.51400
C30         C  0.24193340  0.85292729  0.68524368     0.70600
O31         O  0.27563511  0.83242605  0.69254530    -0.46300
C32         C  0.18941198  0.74890036  0.75459978     0.75300
O33         O  0.27685137  0.74851866  0.71853627    -0.58100
O34         O  0.18292180  0.78280417  0.73666720    -0.48200
O35         O  0.32035584  0.78025263  0.75160664    -0.54500
C36         C  0.26299186  0.85157073  0.80265343     0.85500
O37         O  0.21476716  0.85345751  0.70961158    -0.56400
O38         O  0.22587688  0.74693435  0.76860818    -0.59700
C39         C  0.90402968  0.67323032  0.75129338     0.80600
N40         N  0.88095881  0.71105884  0.75223556    -0.77700
C41         C  0.83760339  0.71017347  0.75705267     0.83000
N42         N  0.81753655  0.67198326  0.75996354    -0.77700
C43         C  0.83883494  0.63438197  0.75722567     0.83100
N44         N  0.88234865  0.63469946  0.75279000    -0.79400
In45       In  0.75185901  0.53610348  0.74339899     1.36900
C46         C  0.68902455  0.59374633  0.73092242     0.78000
O47         O  0.71399888  0.48806913  0.77618253    -0.60500
O48         O  0.77301526  0.50997476  0.79529057    -0.51400
C49         C  0.76768129  0.49048616  0.68627964     0.70600
O50         O  0.73132028  0.50575321  0.69349349    -0.46300
C51         C  0.81172318  0.59571912  0.75540547     0.75300
O52         O  0.68353427  0.56214495  0.75156918    -0.58100
O53         O  0.82031741  0.56281408  0.73781272    -0.48200
O54         O  0.72452690  0.59338755  0.71505026    -0.54500
C55         C  0.73960058  0.48856467  0.80139934     0.85500
O56         O  0.79510913  0.49578593  0.70970824    -0.56400
O57         O  0.77445413  0.59598064  0.76828547    -0.59700
C58         C  0.59474290  0.66943158  0.73453600     0.80600
N59         N  0.61758008  0.63147589  0.73326675    -0.77700
C60         C  0.66112986  0.63223370  0.72940108     0.83000
N61         N  0.68144913  0.67043698  0.72751483    -0.77700
C62         C  0.66017655  0.70810701  0.73043921     0.83100
N63         N  0.61657867  0.70786308  0.73411953    -0.79400
In64       In  0.74735236  0.80649359  0.74440357     1.36900
C65         C  0.80950273  0.74836597  0.75572130     0.78000
O66         O  0.72378462  0.74751724  0.71856279    -0.60500
O67         O  0.67922598  0.77900252  0.75131245    -0.51400
C68         C  0.73619982  0.85183895  0.80268935     0.70600
O69         O  0.77025200  0.83199637  0.79557731    -0.46300
C70         C  0.75916093  0.85361519  0.68591425     0.75300
O71         O  0.81609860  0.78150403  0.73692965    -0.58100
O72         O  0.72410097  0.83590842  0.69370796    -0.48200
O73         O  0.77314258  0.74730206  0.77024137    -0.54500
C74         C  0.68715158  0.74691350  0.73254454     0.85500
O75         O  0.70890049  0.85123246  0.77865341    -0.56400
O76         O  0.78692028  0.85010752  0.70947784    -0.59700
C77         C  0.00700832  0.26832998  0.48619875     0.80600
N78         N  0.04526265  0.29034699  0.48449133    -0.77700
C79         C  0.04510777  0.33421983  0.48014347     0.83000
N80         N  0.00741712  0.35535716  0.47800784    -0.77700
C81         C  0.96964142  0.33485066  0.48123218     0.83100
N82         N  0.96915574  0.29113641  0.48554729    -0.79400
In83       In  0.87212202  0.42379223  0.49245983     1.36900
C84         C  0.93144532  0.36272991  0.48273388     0.78000
O85         O  0.83130530  0.38337202  0.45857497    -0.60500
O86         O  0.84072992  0.44826145  0.44327665    -0.51400
C87         C  0.82640736  0.43295445  0.55113392     0.70600
O88         O  0.84974293  0.40066983  0.54532571    -0.46300
C89         C  0.92852368  0.48726561  0.49817232     0.75300
O90         O  0.89859020  0.35531930  0.50122619    -0.58100
O91         O  0.89730281  0.49072501  0.47750444    -0.48200
O92         O  0.93197869  0.39947252  0.46820448    -0.54500
C93         C  0.82538907  0.41219734  0.43561174     0.85500
O94         O  0.82403868  0.45883577  0.52559547    -0.56400
O95         O  0.92842754  0.45360785  0.51704067    -0.59700
C96         C  0.00328573  0.58069984  0.48857971     0.80600
N97         N  0.04165661  0.55886222  0.49074733    -0.77700
C98         C  0.04185471  0.51540994  0.49683603     0.83000
N99         N  0.00437405  0.49446113  0.50046813    -0.77700
C100        C  0.96646387  0.51488993  0.49704811     0.83100
N101        N  0.96556254  0.55823090  0.49081932    -0.79400
In102      In  0.13946661  0.42567673  0.49199390     1.36900
C103        C  0.08047265  0.48805486  0.49774630     0.78000
O104        O  0.08314069  0.39799964  0.46511316    -0.60500
O105        O  0.11491824  0.35643123  0.50108022    -0.51400
C106        C  0.18965005  0.41629292  0.43637480     0.70600
O107        O  0.16958560  0.45066883  0.44244252    -0.46300
C108        C  0.18123329  0.43508208  0.55172606     0.75300
O109        O  0.11345473  0.49364391  0.47905622    -0.58100
O110        O  0.15716033  0.40367657  0.54575218    -0.48200
O111        O  0.07997925  0.45289602  0.51462345    -0.54500
C112        C  0.08334159  0.36206834  0.48101591     0.85500
O113        O  0.18632729  0.38817207  0.46029133    -0.56400
O114        O  0.18744578  0.45986807  0.52588863    -0.59700
C115        C  0.99989806  0.76973017  0.48106889     0.80600
N116        N  0.03787902  0.79178907  0.48006324    -0.77700
C117        C  0.03771231  0.83543582  0.47566277     0.83000
N118        N  0.00008400  0.85665191  0.47294663    -0.77700
C119        C  0.96232284  0.83591398  0.47564597     0.83100
N120        N  0.96193394  0.79219358  0.47995803    -0.79400
C121        C  0.00093732  0.07800075  0.49307286     0.80600
N122        N  0.03869278  0.05523193  0.49541911    -0.77700
C123        C  0.03802089  0.01183226  0.50192508     0.83000
N124        N  0.00003311  0.99153453  0.50546441    -0.77700
C125        C  0.96244278  0.01269332  0.50160196     0.83100
N126        N  0.96268095  0.05615720  0.49514889    -0.79400
In127      In  0.13476952  0.92184696  0.49142437     1.36900
C128        C  0.07640981  0.98397940  0.50151408     0.78000
O129        O  0.18100352  0.96008181  0.45862964    -0.60500
O130        O  0.16462245  0.89825570  0.44173493    -0.51400
C131        C  0.18174142  0.90813200  0.54910899     0.70600
O132        O  0.16435887  0.94374237  0.54156107    -0.46300
C133        C  0.07606604  0.86229152  0.47822208     0.75300
O134        O  0.10840434  0.99003289  0.48180030    -0.58100
O135        O  0.07728590  0.89889160  0.46350823    -0.48200
O136        O  0.07672908  0.94831351  0.51783114    -0.54500
C137        C  0.18497304  0.93239348  0.43528929     0.85500
O138        O  0.17642432  0.88026779  0.52615318    -0.56400
O139        O  0.10705279  0.85419928  0.49834228    -0.59700
In140      In  0.86506153  0.92351799  0.49144692     1.36900
C141        C  0.92360103  0.98555786  0.50111988     0.78000
O142        O  0.92346860  0.90031917  0.46406985    -0.60500
O143        O  0.89257352  0.85548475  0.49812125    -0.51400
C144        C  0.81901903  0.91009981  0.54969108     0.70600
O145        O  0.82680829  0.88100958  0.52815225    -0.46300
C146        C  0.81581346  0.93117535  0.43494740     0.75300
O147        O  0.89266623  0.99106835  0.48040224    -0.58100
O148        O  0.83739427  0.89802978  0.44229989    -0.48200
O149        O  0.92207427  0.95064591  0.51843394    -0.54500
C150        C  0.92410077  0.86341422  0.47833762     0.85500
O151        O  0.83273071  0.94667098  0.54038593    -0.56400
O152        O  0.81680215  0.95947276  0.45802781    -0.59700
C153        C  0.49840588  0.57698115  0.00644089     0.80600
N154        N  0.46019679  0.55507336  0.00737058    -0.77700
C155        C  0.46020376  0.51127877  0.01194367     0.83000
N156        N  0.49774687  0.48999262  0.01494873    -0.77700
C157        C  0.53556155  0.51052461  0.01221110     0.83100
N158        N  0.53616671  0.55418865  0.00769442    -0.79400
In159      In  0.63171154  0.42197324  0.99631913     1.36900
C160        C  0.57335499  0.36055432  0.98690144     0.78000
O161        O  0.67760692  0.38467970  0.03066012    -0.60500
O162        O  0.66276669  0.44874009  0.04381681    -0.51400
C163        C  0.67677228  0.43367986  0.93738212     0.70600
O164        O  0.66025720  0.39807594  0.94590600    -0.46300
C165        C  0.57364600  0.48287616  0.00961278     0.75300
O166        O  0.60580142  0.35359728  0.00575966    -0.58100
O167        O  0.57512467  0.44688024  0.02538494    -0.48200
O168        O  0.57298267  0.39687214  0.97164075    -0.54500
C169        C  0.68200596  0.41448357  0.05216332     0.85500
O170        O  0.67182677  0.46209715  0.95997463    -0.56400
O171        O  0.60385331  0.48943925  0.98823545    -0.59700
C172        C  0.49760433  0.26698556  0.99220764     0.80600
N173        N  0.53555296  0.28933405  0.99089522    -0.77700
C174        C  0.53516073  0.33298235  0.98606081     0.83000
N175        N  0.49743147  0.35381587  0.98299733    -0.77700
C176        C  0.45974513  0.33306298  0.98583578     0.83100
N177        N  0.45947164  0.28933238  0.99070638    -0.79400
In178      In  0.36360685  0.42332138  0.99719982     1.36900
C179        C  0.42153068  0.36098738  0.98679299     0.78000
O180        O  0.42058085  0.44789427  0.02524922    -0.60500
O181        O  0.39148423  0.49083737  0.98871248    -0.51400
C182        C  0.31831810  0.43570133  0.93923784     0.70600
O183        O  0.33470773  0.39992474  0.94761503    -0.46300
C184        C  0.31537548  0.41460626  0.05411547     0.75300
O185        O  0.38917372  0.35447447  0.00600561    -0.58100
O186        O  0.33372900  0.44916764  0.04552321    -0.48200
O187        O  0.42198845  0.39735637  0.97157628    -0.54500
C188        C  0.42193100  0.48399914  0.00962474     0.85500
O189        O  0.32241616  0.46417659  0.96183705    -0.56400
O190        O  0.31870327  0.38529876  0.03203290    -0.59700
C191        C  0.49803777  0.07685182  0.99268929     0.80600
N192        N  0.45988050  0.05499932  0.99094310    -0.77700
C193        C  0.46001987  0.01161310  0.98545225     0.83000
N194        N  0.49767067  0.99059031  0.98223285    -0.77700
C195        C  0.53546856  0.01088659  0.98546994     0.83100
N196        N  0.53587834  0.05415680  0.99101633    -0.79400
C197        C  0.50005950  0.76686355  0.00681266     0.80600
N198        N  0.53809386  0.78895794  0.00843498    -0.77700
C199        C  0.53781846  0.83249547  0.01297342     0.83000
N200        N  0.50002386  0.85344712  0.01535888    -0.77700
C201        C  0.46229639  0.83287322  0.01223016     0.83100
N202        N  0.46205318  0.78933370  0.00766875    -0.79400
In203      In  0.63354460  0.92222614  0.99692268     1.36900
C204        C  0.57621553  0.86001180  0.01102845     0.78000
O205        O  0.60704262  0.99057719  0.00381645    -0.60500
O206        O  0.57347028  0.94670102  0.97233687    -0.51400
C207        C  0.68211128  0.93737017  0.05274152     0.70600
O208        O  0.66418191  0.90179873  0.04755225    -0.46300
C209        C  0.67893611  0.90939940  0.93832075     0.75300
O210        O  0.60818780  0.85321344  0.99160585    -0.58100
O211        O  0.67762756  0.88269890  0.96335236    -0.48200
O212        O  0.57624589  0.89636710  0.02516850    -0.54500
C213        C  0.57388096  0.98319141  0.98626194     0.85500
O214        O  0.67785867  0.96398021  0.02789625    -0.56400
O215        O  0.65906108  0.94382647  0.94444396    -0.59700
In216      In  0.36443277  0.92127995  0.99667018     1.36900
C217        C  0.42395275  0.86063369  0.00995035     0.78000
O218        O  0.32443824  0.88020376  0.96189687    -0.60500
O219        O  0.33686635  0.94379896  0.94507589    -0.51400
C220        C  0.31442981  0.93218300  0.05286988     0.70600
O221        O  0.31723600  0.95957240  0.02840070    -0.46300
C222        C  0.42161576  0.98422508  0.98615284     0.75300
O223        O  0.42435215  0.89796362  0.02232672    -0.58100
O224        O  0.39020503  0.98909078  0.00656776    -0.48200
O225        O  0.39093136  0.85234483  0.99251431    -0.54500
C226        C  0.32048079  0.90805102  0.93791561     0.85500
O227        O  0.33482473  0.89799581  0.04707596    -0.56400
O228        O  0.42121117  0.94946667  0.96961069    -0.57300
In229      In  0.25241283  0.30711552  0.24640892     1.36900
C230        C  0.31572203  0.25039625  0.23610969     0.78000
O231        O  0.22707631  0.24872160  0.27296759    -0.60500
O232        O  0.18465259  0.28136654  0.23820006    -0.51400
C233        C  0.24408005  0.35337332  0.30352623     0.70600
O234        O  0.27763972  0.33260388  0.29632097    -0.46300
C235        C  0.25881867  0.35712040  0.18942414     0.75300
O236        O  0.32091576  0.28231137  0.25551150    -0.58100
O237        O  0.22922847  0.33016567  0.19414275    -0.48200
O238        O  0.28037834  0.25009918  0.22039004    -0.54500
C239        C  0.19145949  0.24879168  0.25759878     0.85500
O240        O  0.21556852  0.35217801  0.28043282    -0.56400
O241        O  0.28368202  0.35968405  0.21500118    -0.59700
C242        C  0.41055485  0.17602673  0.24220032     0.80600
N243        N  0.38717395  0.21362536  0.24094616    -0.77700
C244        C  0.34411032  0.21249823  0.23526795     0.83000
N245        N  0.32464496  0.17423727  0.23161976    -0.77700
C246        C  0.34627338  0.13671194  0.23457553     0.83100
N247        N  0.38953995  0.13726585  0.24007115    -0.79400
In248      In  0.25726209  0.03952022  0.24516287     1.36900
C249        C  0.31952497  0.09767893  0.23500184     0.78000
O250        O  0.28931502  0.99064497  0.21099622    -0.60500
O251        O  0.23107413  0.01842002  0.19403679    -0.51400
C252        C  0.24969478  0.99094729  0.30258944     0.70600
O253        O  0.28358907  0.01094293  0.29488972    -0.46300
C254        C  0.19466772  0.09650955  0.25704463     0.75300
O255        O  0.32503876  0.06547234  0.25505566    -0.58100
O256        O  0.18809158  0.06384925  0.23877023    -0.48200
O257        O  0.28459283  0.09748663  0.21861910    -0.54500
C258        C  0.26183816  0.99365692  0.18711658     0.85500
O259        O  0.22110066  0.99336307  0.27963172    -0.56400
O260        O  0.23133017  0.09769852  0.27066884    -0.59700
C261        C  0.09998538  0.17139253  0.25224230     0.80600
N262        N  0.12163497  0.20978248  0.25340099    -0.77700
C263        C  0.16478103  0.20998986  0.25861210     0.83000
N264        N  0.18607579  0.17237897  0.26168355    -0.77700
C265        C  0.16616560  0.13426672  0.25867707     0.83100
N266        N  0.12280849  0.13340019  0.25382099    -0.79400
C267        C  0.91084021  0.17283534  0.24947940     0.80600
N268        N  0.88879756  0.21129684  0.24968882    -0.77700
C269        C  0.84534448  0.21153355  0.25378032     0.83000
N270        N  0.82439706  0.17384947  0.25717117    -0.77700
C271        C  0.84490792  0.13568608  0.25540253     0.83100
N272        N  0.88839556  0.13483395  0.25134419    -0.79400
In273      In  0.75286186  0.04290804  0.24402680     1.36900
C274        C  0.69231517  0.10326505  0.23607133     0.78000
O275        O  0.78200854  0.09779132  0.27136436    -0.60500
O276        O  0.82166336  0.06647737  0.23447609    -0.51400
C277        C  0.75902877  0.99186255  0.30070656     0.70600
O278        O  0.72831027  0.01754310  0.29549388    -0.46300
C279        C  0.74235088  0.99955264  0.18516156     0.75300
O280        O  0.68464516  0.06877119  0.25283235    -0.58100
O281        O  0.77578227  0.02064354  0.19141580    -0.48200
O282        O  0.72883184  0.10472956  0.22193391    -0.54500
C283        C  0.81706170  0.09761560  0.25490284     0.85500
O284        O  0.78523131  0.99078025  0.27566703    -0.56400
O285        O  0.71562957  0.99913300  0.20983715    -0.59700
C286        C  0.59978697  0.18020579  0.24359079     0.80600
N287        N  0.62177245  0.14186750  0.24153766    -0.77700
C288        C  0.66503237  0.14196635  0.23613673     0.83000
N289        N  0.68580320  0.17974364  0.23296627    -0.77700
C290        C  0.66543140  0.21772228  0.23626381     0.83100
N291        N  0.62221686  0.21829015  0.24197641    -0.79400
In292      In  0.75779099  0.31110954  0.24320880     1.36900
C293        C  0.81823129  0.25049671  0.25258928     0.78000
O294        O  0.79618675  0.35613680  0.27615849    -0.60500
O295        O  0.73515650  0.33609545  0.29420687    -0.51400
C296        C  0.74768184  0.35965432  0.18557492     0.70600
O297        O  0.77898856  0.33449112  0.19023355    -0.46300
C298        C  0.69323073  0.25586808  0.23566290     0.75300
O299        O  0.82588344  0.28413637  0.23464875    -0.58100
O300        O  0.69012439  0.28680078  0.25643723    -0.48200
O301        O  0.78184989  0.25002988  0.26693999    -0.54500
C302        C  0.76911069  0.35618068  0.30062173     0.85500
O303        O  0.72335184  0.36198938  0.21172483    -0.56400
O304        O  0.72693761  0.25603792  0.21740046    -0.59700
C305        C  0.95929873  0.17249613  0.24943599    -0.05000
C306        C  0.98214054  0.19994493  0.27181836    -0.02100
C307        C  0.02759830  0.19971290  0.27237057     0.02900
C308        C  0.05151432  0.17138508  0.25103609    -0.05000
C309        C  0.02868515  0.14306836  0.22929553    -0.02100
C310        C  0.98307549  0.14402842  0.22817980     0.02900
C311        C  0.95895705  0.22723609  0.29584297     0.37600
C312        C  0.05198118  0.11332554  0.20739212     0.37500
C313        C  0.96073627  0.11656059  0.20414147     0.36000
C314        C  0.04954695  0.22764189  0.29636860     0.36000
N315        N  0.94294736  0.09475193  0.18485540    -0.38800
N316        N  0.06694738  0.25002089  0.31545992    -0.38800
N317        N  0.07045891  0.08934774  0.19004998    -0.38300
N318        N  0.94059488  0.24891838  0.31511918    -0.38300
C319        C  0.45900787  0.17774009  0.24384739    -0.05000
C320        C  0.48271479  0.14947656  0.26596942    -0.02100
C321        C  0.52833294  0.15083835  0.26655245     0.02900
C322        C  0.55128070  0.18043660  0.24496846    -0.05000
C323        C  0.52749542  0.20884861  0.22302357    -0.02100
C324        C  0.48203003  0.20742029  0.22238435     0.02900
C325        C  0.46024661  0.11936446  0.28881962     0.37600
C326        C  0.54970158  0.23840763  0.19946931     0.37500
C327        C  0.45919598  0.23522635  0.19789825     0.36000
C328        C  0.55155172  0.12224016  0.29014273     0.36000
N329        N  0.44112440  0.25737051  0.17828065    -0.38800
N330        N  0.57004340  0.09939216  0.30896529    -0.38800
N331        N  0.56730991  0.26201158  0.18066557    -0.38300
N332        N  0.44240415  0.09524205  0.30703385    -0.38300
C333        C  0.29232197  0.94117725  0.08670168    -0.05000
C334        C  0.26293323  0.97596225  0.08918931    -0.02100
C335        C  0.25086636  0.99182131  0.12203644     0.02900
C336        C  0.26691916  0.97211287  0.15291195    -0.05000
C337        C  0.29113347  0.93366624  0.15043930    -0.02100
C338        C  0.30417266  0.91846806  0.11762408     0.02900
C339        C  0.24514556  0.99599604  0.05799144     0.37600
C340        C  0.30301910  0.90965209  0.18174310     0.37500
C341        C  0.33151635  0.88053304  0.11631635     0.36000
C342        C  0.22394349  0.03008348  0.12357970     0.36000
N343        N  0.35336698  0.85029520  0.11547407    -0.38800
N344        N  0.20256687  0.06064436  0.12472675    -0.38800
N345        N  0.31240118  0.89042467  0.20666712    -0.38300
N346        N  0.23070730  0.01200752  0.03323887    -0.38300
C347        C  0.70351263  0.94827637  0.08621908    -0.05000
C348        C  0.73511300  0.98095420  0.08725598    -0.02100
C349        C  0.74961219  0.99651124  0.11949787     0.02900
C350        C  0.73358976  0.97867561  0.15117825    -0.05000
C351        C  0.70545094  0.94308594  0.15000742    -0.02100
C352        C  0.68955552  0.92879669  0.11793717     0.02900
C353        C  0.75252042  0.99921885  0.05515674     0.37600
C354        C  0.69251687  0.92091292  0.18194653     0.37500
C355        C  0.65633771  0.89610029  0.11823336     0.36000
C356        C  0.77936234  0.03241187  0.11967005     0.36000
N357        N  0.62954847  0.87035272  0.11865345    -0.38800
N358        N  0.80302372  0.06109385  0.11959732    -0.38800
N359        N  0.68235112  0.90316433  0.20739704    -0.38300
N360        N  0.76645870  0.01383865  0.02961217    -0.38300
C361        C  0.29501897  0.40774785  0.08868923    -0.05000
C362        C  0.31581091  0.42261745  0.11876413    -0.02100
C363        C  0.30110693  0.40983829  0.15206012     0.02900
C364        C  0.26624430  0.38079714  0.15565196    -0.05000
C365        C  0.24229341  0.37051346  0.12556454    -0.02100
C366        C  0.25711340  0.38339529  0.09223203     0.02900
C367        C  0.35465133  0.44822151  0.11568563     0.37600
C368        C  0.20265107  0.34627633  0.12836378     0.37500
C369        C  0.23355696  0.37109881  0.06149358     0.36000
C370        C  0.32288794  0.42623004  0.18237745     0.36000
N371        N  0.21477565  0.36122805  0.03700958    -0.38800
N372        N  0.34041837  0.43947946  0.20638797    -0.38800
N373        N  0.17086672  0.32719478  0.13042697    -0.38300
N374        N  0.38572957  0.46838069  0.11322722    -0.38300
C375        C  0.49807167  0.21827902  0.99331707    -0.05000
C376        C  0.52402149  0.19518082  0.96963942    -0.02100
C377        C  0.52510339  0.14946039  0.97046020     0.02900
C378        C  0.49861860  0.12555327  0.99384682    -0.05000
C379        C  0.47200796  0.14862499  0.01714313    -0.02100
C380        C  0.47230582  0.19452126  0.01726692     0.02900
C381        C  0.54789939  0.21835521  0.94277170     0.37600
C382        C  0.44500474  0.12523615  0.04176283     0.37500
C383        C  0.44701197  0.21727156  0.04289341     0.36000
C384        C  0.55268144  0.12714032  0.94607949     0.36000
N385        N  0.42704344  0.23548872  0.06345147    -0.38800
N386        N  0.57493714  0.10936551  0.92682354    -0.38800
N387        N  0.42329639  0.10670630  0.06138983    -0.38300
N388        N  0.56660146  0.23672818  0.92109466    -0.38300
C389        C  0.70530143  0.40851656  0.08561942    -0.05000
C390        C  0.74149814  0.38117619  0.08755736    -0.02100
C391        C  0.75783563  0.36772148  0.12019059     0.02900
C392        C  0.73802688  0.38170990  0.15143328    -0.05000
C393        C  0.70535552  0.41364375  0.14915331    -0.02100
C394        C  0.68899221  0.42681171  0.11645742     0.02900
C395        C  0.76208318  0.36684202  0.05580581     0.37600
C396        C  0.68752607  0.43263099  0.18033583     0.37500
C397        C  0.65360720  0.45742571  0.11499150     0.36000
C398        C  0.79397752  0.33808166  0.12099805     0.36000
N399        N  0.62547237  0.48188855  0.11386854    -0.38800
N400        N  0.82281258  0.31443940  0.12135184    -0.38800
N401        N  0.67305652  0.44785022  0.20505931    -0.38300
N402        N  0.77855599  0.35563552  0.03046372    -0.38300
C403        C  0.49917878  0.62563093  0.00570706    -0.05000
C404        C  0.52276162  0.64813393  0.03101087    -0.02100
C405        C  0.52289176  0.69386577  0.03125002     0.02900
C406        C  0.50006922  0.71823012  0.00584345    -0.05000
C407        C  0.47663667  0.69579119  0.98040003    -0.02100
C408        C  0.47617430  0.64990994  0.98035566     0.02900
C409        C  0.54591596  0.62424192  0.05781096     0.37600
C410        C  0.45384945  0.71988489  0.95356282     0.37500
C411        C  0.45326687  0.62767576  0.95332273     0.36000
C412        C  0.54487114  0.71582511  0.05897092     0.36000
N413        N  0.43515536  0.60987115  0.93167790    -0.38800
N414        N  0.56214993  0.73335560  0.08120001    -0.38800
N415        N  0.43569120  0.73907822  0.93209591    -0.38300
N416        N  0.56448083  0.60520950  0.07913778    -0.38300
C417        C  0.79431676  0.93796921  0.40073869    -0.05000
C418        C  0.81331807  0.92183194  0.37005171    -0.02100
C419        C  0.79875415  0.93610297  0.33711379     0.02900
C420        C  0.76590980  0.96771552  0.33439592    -0.05000
C421        C  0.74317612  0.97917403  0.36504674    -0.02100
C422        C  0.75729043  0.96411358  0.39797991     0.02900
C423        C  0.84971717  0.89248987  0.37196371     0.37600
C424        C  0.70596666  0.00740270  0.36334841     0.37500
C425        C  0.73347062  0.97535626  0.42909868     0.36000
C426        C  0.81834517  0.91833836  0.30613561     0.36000
N427        N  0.71426946  0.98401374  0.45387250    -0.38800
N428        N  0.83404683  0.90397565  0.28155769    -0.38800
N429        N  0.67619651  0.02981974  0.36224492    -0.38300
N430        N  0.87874436  0.86913270  0.37340051    -0.38300
C431        C  0.20931995  0.94074121  0.40223886    -0.05000
C432        C  0.23974250  0.97457167  0.40027634    -0.02100
C433        C  0.25585568  0.98892073  0.36776033     0.02900
C434        C  0.24211137  0.96930687  0.33685469    -0.05000
C435        C  0.21616811  0.93217720  0.33909636    -0.02100
C436        C  0.19961179  0.91795702  0.37154244     0.02900
C437        C  0.25405007  0.99557902  0.43159780     0.37600
C438        C  0.20622515  0.90873145  0.30779277     0.37500
C439        C  0.17097871  0.88115625  0.37251418     0.36000
C440        C  0.28442520  0.02578332  0.36626039     0.36000
N441        N  0.14820883  0.85175000  0.37292115    -0.38800
N442        N  0.30720127  0.05517125  0.36523578    -0.38800
N443        N  0.19857551  0.89011426  0.28276096    -0.38300
N444        N  0.26532626  0.01243590  0.45654724    -0.38300
C445        C  0.21201856  0.40762550  0.40276409    -0.05000
C446        C  0.19905776  0.42899232  0.37157398    -0.02100
C447        C  0.21160885  0.41270878  0.33900916     0.02900
C448        C  0.23748575  0.37528081  0.33724381    -0.05000
C449        C  0.25427109  0.35691141  0.36832003    -0.02100
C450        C  0.24218755  0.37351795  0.40082799     0.02900
C451        C  0.17136664  0.46670653  0.37246446     0.37600
C452        C  0.28144427  0.31879129  0.36737119     0.37500
C453        C  0.26065968  0.35492009  0.43232577     0.36000
C454        C  0.19711676  0.43419853  0.30727329     0.36000
N455        N  0.27548604  0.34012393  0.45739752    -0.38800
N456        N  0.18544651  0.45124783  0.28198977    -0.38800
N457        N  0.30290351  0.28826232  0.36673882    -0.38300
N458        N  0.14944209  0.49691139  0.37293387    -0.38300
C459        C  0.00246144  0.62910617  0.48625266    -0.05000
C460        C  0.97753162  0.65111612  0.46080498    -0.02100
C461        C  0.97643161  0.69685102  0.45928947     0.02900
C462        C  0.00005916  0.72133346  0.48331208    -0.05000
C463        C  0.02464908  0.69929641  0.50892446    -0.02100
C464        C  0.02546344  0.65363277  0.51061047     0.02900
C465        C  0.95365035  0.62678125  0.43554651     0.37600
C466        C  0.04827039  0.72358188  0.53437931     0.37500
C467        C  0.04821623  0.63191357  0.53877195     0.36000
C468        C  0.95229674  0.71868057  0.43195466     0.36000
N469        N  0.06603699  0.61452403  0.56137307    -0.38800
N470        N  0.93317218  0.73614582  0.41010647    -0.38800
N471        N  0.06721642  0.74291992  0.55464375    -0.38300
N472        N  0.93447035  0.60749009  0.41539267    -0.38300
C473        C  0.80479402  0.40308582  0.40155394    -0.05000
C474        C  0.81675200  0.42646657  0.37094926    -0.02100
C475        C  0.80321149  0.41256378  0.33797984     0.02900
C476        C  0.77781804  0.37515329  0.33516441    -0.05000
C477        C  0.76366036  0.35346902  0.36583557    -0.02100
C478        C  0.77669573  0.36759093  0.39874534     0.02900
C479        C  0.84492727  0.46352236  0.37279255     0.37600
C480        C  0.73798576  0.31459997  0.36383167     0.37500
C481        C  0.76158651  0.34465482  0.42970425     0.36000
C482        C  0.81580703  0.43675653  0.30691672     0.36000
N483        N  0.74969806  0.32616731  0.45431323    -0.38800
N484        N  0.82590958  0.45615124  0.28222541    -0.38800
N485        N  0.71767569  0.28352791  0.36235284    -0.38300
N486        N  0.86742831  0.49305117  0.37411907    -0.38300
C487        C  0.00163264  0.12675990  0.49033146    -0.05000
C488        C  0.97730129  0.15191719  0.51378032    -0.02100
C489        C  0.97971281  0.19767448  0.51285946     0.02900
C490        C  0.00612612  0.21952605  0.48819020    -0.05000
C491        C  0.02998009  0.19441840  0.46435018    -0.02100
C492        C  0.02787305  0.14855987  0.46549260     0.02900
C493        C  0.95055574  0.13069655  0.53984904     0.37600
C494        C  0.05542530  0.21576664  0.43749391     0.37500
C495        C  0.05144228  0.12389108  0.43996654     0.36000
C496        C  0.95597705  0.22218469  0.53839150     0.36000
N497        N  0.07013683  0.10432382  0.41945153    -0.38800
N498        N  0.93709137  0.24162957  0.55886558    -0.38800
N499        N  0.07560176  0.23282043  0.41599757    -0.38300
N500        N  0.92914461  0.11366327  0.56053990    -0.38300
C501        C  0.72766530  0.87146250  0.83732242    -0.05000
C502        C  0.70080015  0.90805237  0.84011210    -0.02100
C503        C  0.68665915  0.92203358  0.87306884     0.02900
C504        C  0.69962667  0.89977148  0.90392818    -0.05000
C505        C  0.72982383  0.86566110  0.90113587    -0.02100
C506        C  0.74343388  0.85140128  0.86814173     0.02900
C507        C  0.68762449  0.93163026  0.80896673     0.37600
C508        C  0.74691587  0.84454586  0.93215344     0.37500
C509        C  0.77188947  0.81429762  0.86624770     0.36000
C510        C  0.65720334  0.95833440  0.87460963     0.36000
N511        N  0.79451450  0.78468045  0.86483865    -0.38800
N512        N  0.63368693  0.98727168  0.87570156    -0.38800
N513        N  0.76060223  0.82755748  0.95678226    -0.38300
N514        N  0.67717484  0.95058405  0.78419568    -0.38300
C515        C  0.76841814  0.87388699  0.65106575    -0.05000
C516        C  0.74985724  0.85704451  0.62056080    -0.02100
C517        C  0.76529478  0.86990408  0.58733459     0.02900
C518        C  0.79807265  0.90114122  0.58405949    -0.05000
C519        C  0.81350103  0.92106970  0.61435814    -0.02100
C520        C  0.79931918  0.90703508  0.64761930     0.02900
C521        C  0.71612926  0.82495499  0.62301315     0.37600
C522        C  0.84588629  0.95449693  0.61165870     0.37500
C523        C  0.81717885  0.92660854  0.67831917     0.36000
C524        C  0.74757035  0.85046846  0.55649830     0.36000
N525        N  0.83169790  0.94214961  0.70272199    -0.38800
N526        N  0.73350870  0.83472208  0.53200122    -0.38800
N527        N  0.87158465  0.98125855  0.60944487    -0.38300
N528        N  0.68902868  0.79958864  0.62487747    -0.38300
C529        C  0.77817998  0.47071247  0.65212087    -0.05000
C530        C  0.75884567  0.48689880  0.62125277    -0.02100
C531        C  0.77210806  0.47186897  0.58844972     0.02900
C532        C  0.80616837  0.44169472  0.58578602    -0.05000
C533        C  0.82370827  0.42358576  0.61683570    -0.02100
C534        C  0.80980309  0.43805896  0.64970159     0.02900
C535        C  0.72736121  0.52149326  0.62275420     0.37600
C536        C  0.85731410  0.39108942  0.61543871     0.37500
C537        C  0.82868005  0.41949311  0.68105005     0.36000
C538        C  0.75032561  0.48780798  0.55746403     0.36000
N539        N  0.84395390  0.40467053  0.70593539    -0.38800
N540        N  0.73269902  0.50054919  0.53289646    -0.38800
N541        N  0.88403571  0.36509848  0.61445211    -0.38300
N542        N  0.70255065  0.54930591  0.62398220    -0.38300
C543        C  0.72946368  0.46929181  0.83637903    -0.05000
C544        C  0.74329576  0.49027192  0.86677218    -0.02100
C545        C  0.72770016  0.47723856  0.89978008     0.02900
C546        C  0.69838943  0.44261577  0.90316465    -0.05000
C547        C  0.68735491  0.41930639  0.87306457    -0.02100
C548        C  0.70253980  0.43282967  0.83988346     0.02900
C549        C  0.77177189  0.52719697  0.86436555     0.37600
C550        C  0.65881191  0.38248507  0.87561358     0.37500
C551        C  0.69010721  0.40914423  0.80932677     0.36000
C552        C  0.74151598  0.50052110  0.93019089     0.36000
N553        N  0.68005491  0.39016484  0.78504999    -0.38800
N554        N  0.75229600  0.51944307  0.95428736    -0.38800
N555        N  0.63616076  0.35302969  0.87748188    -0.38300
N556        N  0.79447698  0.55660810  0.86261490    -0.38300
C557        C  0.27173822  0.87084255  0.83730293    -0.05000
C558        C  0.29858230  0.90725673  0.83992436    -0.02100
C559        C  0.31369042  0.92033466  0.87270554     0.02900
C560        C  0.30033641  0.89842626  0.90361383    -0.05000
C561        C  0.27000368  0.86474901  0.90111109    -0.02100
C562        C  0.25638851  0.85056170  0.86825589     0.02900
C563        C  0.31025875  0.93186212  0.80884969     0.37600
C564        C  0.25273901  0.84416238  0.93236675     0.37500
C565        C  0.22818711  0.81349674  0.86667322     0.36000
C566        C  0.34500257  0.95477822  0.87400425     0.36000
N567        N  0.20577130  0.78388777  0.86558425    -0.38800
N568        N  0.37020317  0.98205191  0.87484264    -0.38800
N569        N  0.23895233  0.82773821  0.95725833    -0.38300
N570        N  0.31917715  0.95175269  0.78411243    -0.38300
C571        C  0.23336272  0.87145775  0.64991120    -0.05000
C572        C  0.21079455  0.91070894  0.64577453    -0.02100
C573        C  0.19641973  0.92445321  0.61253816     0.02900
C574        C  0.20412706  0.89868259  0.58292706    -0.05000
C575        C  0.23048194  0.86150202  0.58679120    -0.02100
C576        C  0.24455140  0.84775381  0.62005804     0.02900
C577        C  0.20224692  0.93708335  0.67585270     0.37600
C578        C  0.24331017  0.83684842  0.55668258     0.37500
C579        C  0.26819406  0.80743249  0.62357282     0.36000
C580        C  0.17263387  0.96464459  0.60949128     0.36000
N581        N  0.28688349  0.77523434  0.62638975    -0.38800
N582        N  0.15383014  0.99682610  0.60720384    -0.38800
N583        N  0.25375594  0.81702977  0.53283740    -0.38300
N584        N  0.19549145  0.95815586  0.69982325    -0.38300
C585        C  0.45364628  0.66854297  0.73585204    -0.05000
C586        C  0.47716071  0.64265225  0.71240091    -0.02100
C587        C  0.52277940  0.64248515  0.71239225     0.02900
C588        C  0.54609936  0.66887739  0.73539013    -0.05000
C589        C  0.52250972  0.69534132  0.75842415    -0.02100
C590        C  0.47687454  0.69474529  0.75894833     0.02900
C591        C  0.45449488  0.61771991  0.68677103     0.37600
C592        C  0.54507066  0.72284829  0.78228085     0.37500
C593        C  0.45381720  0.72030467  0.78420576     0.36000
C594        C  0.54560329  0.61646950  0.68728442     0.36000
N595        N  0.43532981  0.74054540  0.80441110    -0.38800
N596        N  0.56373586  0.59568628  0.66723110    -0.38800
N597        N  0.56293151  0.74504268  0.80122680    -0.38300
N598        N  0.43648314  0.59802999  0.66617350    -0.38300
C599        C  0.04538847  0.67660913  0.74785473    -0.05000
C600        C  0.02142555  0.70732926  0.76691898    -0.02100
C601        C  0.97593398  0.70536429  0.76864264     0.02900
C602        C  0.95274630  0.67431787  0.74966533    -0.05000
C603        C  0.97660710  0.64430528  0.72980566    -0.02100
C604        C  0.02227733  0.64532122  0.72904056     0.02900
C605        C  0.04332346  0.74061470  0.78599016     0.37600
C606        C  0.95438446  0.61219174  0.70975090     0.37500
C607        C  0.04533770  0.61459381  0.70783087     0.36000
C608        C  0.95338764  0.73357054  0.79235840     0.36000
N609        N  0.06364707  0.59002017  0.69091872    -0.38800
N610        N  0.93559271  0.75572199  0.81162876    -0.38800
N611        N  0.93683336  0.58632360  0.69387271    -0.38300
N612        N  0.06054781  0.76754119  0.80094330    -0.38300
C613        C  0.26937292  0.47113860  0.83778616    -0.05000
C614        C  0.24909874  0.48677016  0.86820442    -0.02100
C615        C  0.26367756  0.47354244  0.90143563     0.02900
C616        C  0.29860928  0.44460600  0.90469718    -0.05000
C617        C  0.31727068  0.42712998  0.87437762    -0.02100
C618        C  0.30209069  0.43963194  0.84118175     0.02900
C619        C  0.21472675  0.51839596  0.86572014     0.37600
C620        C  0.35464524  0.39912753  0.87695959     0.37500
C621        C  0.32042356  0.41990731  0.81052258     0.36000
C622        C  0.24329266  0.49077407  0.93229412     0.36000
N623        N  0.33502654  0.40384819  0.78621245    -0.38800
N624        N  0.22719235  0.50476142  0.95685213    -0.38800
N625        N  0.38473779  0.37726065  0.87911332    -0.38300
N626        N  0.18731536  0.54361243  0.86384311    -0.38300
C627        C  0.19671528  0.44447499  0.58727265    -0.05000
C628        C  0.16699761  0.44402348  0.61516990    -0.02100
C629        C  0.17941877  0.45738806  0.64848375     0.02900
C630        C  0.22193214  0.47153802  0.65440355    -0.05000
C631        C  0.25226418  0.46968112  0.62677758    -0.02100
C632        C  0.23954862  0.45663252  0.59331995     0.02900
C633        C  0.12247790  0.43267821  0.60908802     0.37600
C634        C  0.29679928  0.48085635  0.63263110     0.37500
C635        C  0.27073688  0.45530035  0.56522102     0.36000
C636        C  0.14723151  0.45872537  0.67588412     0.36000
N637        N  0.29582692  0.45421429  0.54295742    -0.38800
N638        N  0.12125651  0.45967872  0.69748005    -0.38800
N639        N  0.33230162  0.48975832  0.63736985    -0.38300
N640        N  0.08705326  0.42376797  0.60402908    -0.38300
loop_ 
_geom_bond_atom_site_label_1 
_geom_bond_atom_site_label_2 
_geom_bond_distance 
_geom_bond_site_symmetry_2 
_ccdc_geom_bond_type 
In1           O3   2.292       .  S
In1           O4   2.230       .  S
In1          O12   2.257       .  S
In1           O6   2.245       .  S
In1           O8   2.312       .  S
In1           O9   2.250       .  S
In1          O10   2.208       .  S
In1          O13   2.246       .  S
C2            O8   1.263       .  A
C2           O10   1.259       .  A
C2           C22   1.474       .  S
O3           C11   1.262       .  A
O4           C11   1.260       .  A
C5           O12   1.259       .  A
C5            O6   1.256       .  A
C5          C630   1.496       .  S
C7            O9   1.261       .  A
C7           O13   1.258       .  A
C7          C613   1.492       .  S
C11          C18   1.470       .  S
C14         C599   1.520       .  S
C14          N15   1.375       .  A
C14          N19   1.373       .  A
N15          C16   1.365       .  A
C16          C32   1.475       .  S
C16          N17   1.346       .  A
N17          C18   1.346       .  A
C18          N19   1.363       .  A
C20         C585   1.514       .  S
C20          N21   1.377       .  A
C20          N25   1.375       .  A
N21          C22   1.366       .  A
C22          N23   1.344       .  A
N23          C24   1.343       .  A
C24          C27   1.470       .  S
C24          N25   1.364       .  A
In26         O28   2.264       .  S
In26         O29   2.253       .  S
In26         O37   2.262       .  S
In26         O31   2.245       .  S
In26         O33   2.214       .  S
In26         O34   2.301       .  S
In26         O35   2.302       .  S
In26         O38   2.224       .  S
C27          O33   1.260       .  A
C27          O35   1.263       .  A
O28          C36   1.260       .  A
O29          C36   1.257       .  A
C30          O37   1.260       .  A
C30          O31   1.256       .  A
C30         C571   1.490       .  S
C32          O34   1.263       .  A
C32          O38   1.261       .  A
C36         C557   1.497       .  S
C39         C602   1.520       .  S
C39          N40   1.374       .  A
C39          N44   1.375       .  A
N40          C41   1.363       .  A
C41          C65   1.470       .  S
C41          N42   1.344       .  A
N42          C43   1.345       .  A
C43          C51   1.472       .  S
C43          N44   1.366       .  A
In45         O47   2.265       .  S
In45         O48   2.241       .  S
In45         O56   2.255       .  S
In45         O50   2.249       .  S
In45         O52   2.297       .  S
In45         O53   2.300       .  S
In45         O54   2.235       .  S
In45         O57   2.223       .  S
C46          O52   1.262       .  A
C46          O54   1.261       .  A
C46          C60   1.474       .  S
O47          C55   1.259       .  A
O48          C55   1.256       .  A
C49          O56   1.258       .  A
C49          O50   1.258       .  A
C49         C529   1.494       .  S
C51          O53   1.262       .  A
C51          O57   1.261       .  A
C55         C543   1.494       .  S
C58         C588   1.516       .  S
C58          N59   1.375       .  A
C58          N63   1.375       .  A
N59          C60   1.365       .  A
C60          N61   1.346       .  A
N61          C62   1.347       .  A
C62          C74   1.474       .  S
C62          N63   1.366       .  A
In64         O66   2.226       .  S
In64         O67   2.304       .  S
In64         O75   2.265       .  S
In64         O69   2.254       .  S
In64         O71   2.294       .  S
In64         O72   2.258       .  S
In64         O73   2.221       .  S
In64         O76   2.255       .  S
C65          O71   1.262       .  A
C65          O73   1.261       .  A
O66          C74   1.260       .  A
O67          C74   1.263       .  A
C68          O75   1.260       .  A
C68          O69   1.256       .  A
C68         C501   1.496       .  S
C70          O72   1.257       .  A
C70          O76   1.259       .  A
C70         C515   1.497       .  S
C77         C490   1.514       .  S
C77          N78   1.377       .  A
C77          N82   1.373   1_455  A
N78          C79   1.368       .  A
C79         C112   1.475       .  S
C79          N80   1.345       .  A
N80          C81   1.345   1_455  A
C81          C84   1.470       .  S
C81          N82   1.363       .  A
In83         O85   2.230       .  S
In83         O86   2.251       .  S
In83         O94   2.251       .  S
In83         O88   2.251       .  S
In83         O90   2.295       .  S
In83         O91   2.285       .  S
In83         O92   2.217       .  S
In83         O95   2.211       .  S
C84          O90   1.263       .  A
C84          O92   1.260       .  A
O85          C93   1.259       .  A
O86          C93   1.259       .  A
C87          O94   1.259       .  A
C87          O88   1.258       .  A
C87         C532   1.500       .  S
C89          O91   1.262       .  A
C89          O95   1.260       .  A
C89         C100   1.463       .  S
C93         C473   1.493       .  S
C96         C459   1.502       .  S
C96          N97   1.374       .  A
C96         N101   1.371   1_455  A
N97          C98   1.363       .  A
C98         C103   1.470       .  S
C98          N99   1.344       .  A
N99         C100   1.344   1_455  A
C100        N101   1.361       .  A
In102       O104   2.224       .  S
In102       O105   2.303       .  S
In102       O113   2.234       .  S
In102       O107   2.246       .  S
In102       O109   2.302       .  S
In102       O110   2.235       .  S
In102       O111   2.215       .  S
In102       O114   2.267       .  S
C103        O109   1.262       .  A
C103        O111   1.259       .  A
O104        C112   1.261       .  A
O105        C112   1.263       .  A
C106        O113   1.260       .  A
C106        O107   1.259       .  A
C106        C445   1.493       .  S
C108        O110   1.257       .  A
C108        O114   1.260       .  A
C108        C627   1.486       .  S
C115        C462   1.502   1_655  S
C115        N116   1.370   1_655  A
C115        N120   1.371       .  A
N116        C117   1.361       .  A
C117        C133   1.464       .  S
C117        N118   1.346       .  A
N118        C119   1.346   1_455  A
C119        C150   1.467       .  S
C119        N120   1.363       .  A
C121        C487   1.514       .  S
C121        N122   1.372       .  A
C121        N126   1.375   1_455  A
N122        C123   1.365       .  A
C123        C128   1.473   1_545  S
C123        N124   1.348   1_545  A
N124        C125   1.348   1_465  A
C125        C141   1.477   1_545  S
C125        N126   1.366       .  A
In127       O129   2.239       .  S
In127       O130   2.253       .  S
In127       O138   2.252       .  S
In127       O132   2.257       .  S
In127       O134   2.290       .  S
In127       O135   2.219       .  S
In127       O136   2.231       .  S
In127       O139   2.283       .  S
C128        O134   1.262       .  A
C128        O136   1.262       .  A
O129        C137   1.258       .  A
O130        C137   1.256       .  A
C131        O138   1.258       .  A
C131        O132   1.258       .  A
C131        C574   1.502       .  S
C133        O135   1.260       .  A
C133        O139   1.262       .  A
C137        C431   1.496       .  S
In140       O142   2.222       .  S
In140       O143   2.285       .  S
In140       O151   2.257       .  S
In140       O145   2.254       .  S
In140       O147   2.299       .  S
In140       O148   2.239       .  S
In140       O149   2.237       .  S
In140       O152   2.260       .  S
C141        O147   1.263       .  A
C141        O149   1.261       .  A
O142        C150   1.260       .  A
O143        C150   1.262       .  A
C144        O151   1.259       .  A
C144        O145   1.258       .  A
C144        C518   1.493       .  S
C146        O148   1.255       .  A
C146        O152   1.260       .  A
C146        C417   1.490       .  S
C153        C403   1.509       .  S
C153        N154   1.373       .  A
C153        N158   1.371       .  A
N154        C155   1.366       .  A
C155        C188   1.469       .  S
C155        N156   1.346       .  A
N156        C157   1.345       .  A
C157        C165   1.466       .  S
C157        N158   1.362       .  A
In159       O161   2.253   1_556  S
In159       O162   2.245   1_556  S
In159       O170   2.235       .  S
In159       O164   2.264       .  S
In159       O166   2.294   1_556  S
In159       O167   2.226   1_556  S
In159       O168   2.216       .  S
In159       O171   2.279       .  S
C160        O166   1.263   1_556  A
C160        O168   1.260       .  A
C160        C174   1.469       .  S
O161        C169   1.259       .  A
O162        C169   1.255       .  A
C163        O170   1.257       .  A
C163        O164   1.257       .  A
C163        C546   1.497       .  S
C165        O167   1.261       .  A
C165        O171   1.261   1_554  A
C169        C389   1.488       .  S
C172        C375   1.510       .  S
C172        N173   1.374       .  A
C172        N177   1.374       .  A
N173        C174   1.363       .  A
C174        N175   1.344       .  A
N175        C176   1.345       .  A
C176        C179   1.470       .  S
C176        N177   1.366       .  A
In178       O180   2.226   1_556  S
In178       O181   2.287       .  S
In178       O189   2.246       .  S
In178       O183   2.246       .  S
In178       O185   2.296   1_556  S
In178       O186   2.234   1_556  S
In178       O187   2.220       .  S
In178       O190   2.254   1_556  S
C179        O185   1.262   1_556  A
C179        O187   1.261       .  A
O180        C188   1.262       .  A
O181        C188   1.261   1_556  A
C182        O189   1.257       .  A
C182        O183   1.257       .  A
C182        C616   1.487       .  S
C184        O186   1.255       .  A
C184        O190   1.259       .  A
C184        C361   1.482       .  S
C191        C378   1.512       .  S
C191        N192   1.374       .  A
C191        N196   1.373       .  A
N192        C193   1.366       .  A
C193        C222   1.470   1_545  S
C193        N194   1.346   1_545  A
N194        C195   1.345   1_565  A
C195        C213   1.471   1_545  S
C195        N196   1.363       .  A
C197        C406   1.509       .  S
C197        N198   1.374       .  A
C197        N202   1.372       .  A
N198        C199   1.364       .  A
C199        C204   1.473       .  S
C199        N200   1.346       .  A
N200        C201   1.347       .  A
C201        C217   1.472       .  S
C201        N202   1.365       .  A
In203       O205   2.291   1_556  S
In203       O206   2.226       .  S
In203       O214   2.256   1_556  S
In203       O208   2.252   1_556  S
In203       O210   2.297       .  S
In203       O211   2.254       .  S
In203       O212   2.230   1_556  S
In203       O215   2.256       .  S
C204        O210   1.262   1_554  A
C204        O212   1.260       .  A
O205        C213   1.261   1_554  A
O206        C213   1.261       .  A
C207        O214   1.258       .  A
C207        O208   1.258       .  A
C207        C347   1.497       .  S
C209        O211   1.259       .  A
C209        O215   1.257       .  A
C209        C504   1.503       .  S
In216       O218   2.248       .  S
In216       O219   2.263       .  S
In216       O227   2.251   1_556  S
In216       O221   2.255   1_556  S
In216       O223   2.228   1_556  S
In216       O224   2.293   1_556  S
In216       O225   2.297       .  S
In216       O228   2.222       .  S
C217        O223   1.260       .  A
C217        O225   1.261   1_554  A
O218        C226   1.258       .  A
O219        C226   1.258       .  A
C220        O227   1.257       .  A
C220        O221   1.259       .  A
C220        C333   1.499       .  S
C222        O224   1.262   1_556  A
C222        O228   1.262       .  A
C226        C560   1.499       .  S
In229       O231   2.209       .  S
In229       O232   2.286       .  S
In229       O240   2.241       .  S
In229       O234   2.236       .  S
In229       O236   2.293       .  S
In229       O237   2.242       .  S
In229       O238   2.220       .  S
In229       O241   2.235       .  S
C230        O236   1.261       .  A
C230        O238   1.259       .  A
C230        C244   1.469       .  S
O231        C239   1.260       .  A
O232        C239   1.263       .  A
C233        O240   1.260       .  A
C233        O234   1.258       .  A
C233        C448   1.487       .  S
C235        O237   1.257       .  A
C235        O241   1.259       .  A
C235        C364   1.497       .  S
C239        C263   1.465       .  S
C242        C319   1.513       .  S
C242        N243   1.373       .  A
C242        N247   1.375       .  A
N243        C244   1.362       .  A
C244        N245   1.345       .  A
N245        C246   1.346       .  A
C246        C249   1.472       .  S
C246        N247   1.366       .  A
In248       O250   2.251   1_545  S
In248       O251   2.241       .  S
In248       O259   2.237   1_545  S
In248       O253   2.250       .  S
In248       O255   2.299       .  S
In248       O256   2.294       .  S
In248       O257   2.222       .  S
In248       O260   2.217       .  S
C249        O255   1.262       .  A
C249        O257   1.260       .  A
O250        C258   1.260       .  A
O251        C258   1.257   1_545  A
C252        O259   1.258       .  A
C252        O253   1.258   1_565  A
C252        C434   1.486       .  S
C254        O256   1.261       .  A
C254        O260   1.260       .  A
C254        C265   1.469       .  S
C258        C336   1.493       .  S
C261        C308   1.512       .  S
C261        N262   1.372       .  A
C261        N266   1.374       .  A
N262        C263   1.361       .  A
C263        N264   1.343       .  A
N264        C265   1.344       .  A
C265        N266   1.365       .  A
C267        C305   1.510       .  S
C267        N268   1.374       .  A
C267        N272   1.373       .  A
N268        C269   1.363       .  A
C269        C293   1.472       .  S
C269        N270   1.345       .  A
N270        C271   1.345       .  A
C271        C283   1.469       .  S
C271        N272   1.364       .  A
In273       O275   2.217       .  S
In273       O276   2.294       .  S
In273       O284   2.244   1_545  S
In273       O278   2.248       .  S
In273       O280   2.295       .  S
In273       O281   2.261       .  S
In273       O282   2.212       .  S
In273       O285   2.238   1_545  S
C274        O280   1.262       .  A
C274        O282   1.259       .  A
C274        C288   1.468       .  S
O275        C283   1.260       .  A
O276        C283   1.263       .  A
C277        O284   1.260       .  A
C277        O278   1.257   1_565  A
C277        C420   1.500       .  S
C279        O281   1.259   1_565  A
C279        O285   1.259       .  A
C279        C350   1.495       .  S
C286        C322   1.512       .  S
C286        N287   1.373       .  A
C286        N291   1.375       .  A
N287        C288   1.363       .  A
C288        N289   1.344       .  A
N289        C290   1.343       .  A
C290        C298   1.469       .  S
C290        N291   1.364       .  A
In292       O294   2.254       .  S
In292       O295   2.231       .  S
In292       O303   2.244       .  S
In292       O297   2.247       .  S
In292       O299   2.302       .  S
In292       O300   2.294       .  S
In292       O301   2.217       .  S
In292       O304   2.216       .  S
C293        O299   1.263       .  A
C293        O301   1.259       .  A
O294        C302   1.261       .  A
O295        C302   1.258       .  A
C296        O303   1.259       .  A
C296        O297   1.258       .  A
C296        C392   1.500       .  S
C298        O300   1.262       .  A
C298        O304   1.261       .  A
C302        C476   1.489       .  S
C305        C306   1.417       .  A
C305        C310   1.418       .  A
C306        C307   1.417   1_655  A
C306        C311   1.452       .  S
C307        C308   1.419       .  A
C307        C314   1.452       .  S
C308        C309   1.419       .  A
C309        C310   1.423   1_455  A
C309        C312   1.450       .  S
C310        C313   1.450       .  S
C311        N318   1.157       .  T
C312        N317   1.158       .  T
C313        N315   1.157       .  T
C314        N316   1.157       .  T
C319        C320   1.418       .  A
C319        C324   1.419       .  A
C320        C321   1.423       .  A
C320        C325   1.450       .  S
C321        C322   1.419       .  A
C321        C328   1.451       .  S
C322        C323   1.418       .  A
C323        C324   1.418       .  A
C323        C326   1.452       .  S
C324        C327   1.452       .  S
C325        N332   1.157       .  T
C326        N331   1.157       .  T
C327        N329   1.157       .  T
C328        N330   1.158       .  T
C333        C334   1.417       .  A
C333        C338   1.420       .  A
C334        C335   1.412       .  A
C334        C339   1.452       .  S
C335        C336   1.418       .  A
C335        C342   1.452   1_565  S
C336        C337   1.413       .  A
C337        C338   1.412       .  A
C337        C340   1.452       .  S
C338        C341   1.451       .  S
C339        N346   1.157   1_565  T
C340        N345   1.157       .  T
C341        N343   1.158       .  T
C342        N344   1.158       .  T
C347        C348   1.417       .  A
C347        C352   1.418       .  A
C348        C349   1.415       .  A
C348        C353   1.452       .  S
C349        C350   1.418       .  A
C349        C356   1.452   1_565  S
C350        C351   1.414       .  A
C351        C352   1.410       .  A
C351        C354   1.452       .  S
C352        C355   1.452       .  S
C353        N360   1.158   1_565  T
C354        N359   1.157       .  T
C355        N357   1.157       .  T
C356        N358   1.158       .  T
C361        C362   1.414       .  A
C361        C366   1.409       .  A
C362        C363   1.408       .  A
C362        C367   1.454       .  S
C363        C364   1.419       .  A
C363        C370   1.452       .  S
C364        C365   1.421       .  A
C365        C366   1.411       .  A
C365        C368   1.451       .  S
C366        C369   1.452       .  S
C367        N374   1.158       .  T
C368        N373   1.158       .  T
C369        N371   1.157       .  T
C370        N372   1.158       .  T
C375        C376   1.417       .  A
C375        C380   1.417   1_556  A
C376        C377   1.418       .  A
C376        C381   1.452       .  S
C377        C378   1.419       .  A
C377        C384   1.452       .  S
C378        C379   1.419   1_556  A
C379        C380   1.423       .  A
C379        C382   1.450       .  S
C380        C383   1.450       .  S
C381        N388   1.157       .  T
C382        N387   1.157       .  T
C383        N385   1.157       .  T
C384        N386   1.157       .  T
C389        C390   1.410       .  A
C389        C394   1.415       .  A
C390        C391   1.412       .  A
C390        C395   1.452       .  S
C391        C392   1.422       .  A
C391        C398   1.451       .  S
C392        C393   1.419       .  A
C393        C394   1.412       .  A
C393        C396   1.452       .  S
C394        C397   1.453       .  S
C395        N402   1.157       .  T
C396        N401   1.158       .  T
C397        N399   1.158       .  T
C398        N400   1.158       .  T
C403        C404   1.417       .  A
C403        C408   1.417   1_554  A
C404        C405   1.418       .  A
C404        C409   1.451       .  S
C405        C406   1.416       .  A
C405        C412   1.451       .  S
C406        C407   1.418   1_554  A
C407        C408   1.423       .  A
C407        C410   1.450       .  S
C408        C411   1.450       .  S
C409        N416   1.157       .  T
C410        N415   1.157       .  T
C411        N413   1.157       .  T
C412        N414   1.157       .  T
C417        C418   1.416       .  A
C417        C422   1.411       .  A
C418        C419   1.410       .  A
C418        C423   1.453       .  S
C419        C420   1.417       .  A
C419        C426   1.452       .  S
C420        C421   1.422       .  A
C421        C422   1.413       .  A
C421        C424   1.451   1_565  S
C422        C425   1.452       .  S
C423        N430   1.158       .  T
C424        N429   1.158       .  T
C425        N427   1.157       .  T
C426        N428   1.157       .  T
C431        C432   1.418       .  A
C431        C436   1.421       .  A
C432        C433   1.410       .  A
C432        C437   1.452       .  S
C433        C434   1.414       .  A
C433        C440   1.452   1_565  S
C434        C435   1.411       .  A
C435        C436   1.411       .  A
C435        C438   1.453       .  S
C436        C439   1.451       .  S
C437        N444   1.157   1_565  T
C438        N443   1.157       .  T
C439        N441   1.158       .  T
C440        N442   1.157       .  T
C445        C446   1.419       .  A
C445        C450   1.415       .  A
C446        C447   1.411       .  A
C446        C451   1.452       .  S
C447        C448   1.413       .  A
C447        C454   1.453       .  S
C448        C449   1.416       .  A
C449        C450   1.409       .  A
C449        C452   1.452       .  S
C450        C453   1.452       .  S
C451        N458   1.158       .  T
C452        N457   1.157       .  T
C453        N455   1.157       .  T
C454        N456   1.157       .  T
C459        C460   1.416   1_455  A
C459        C464   1.416       .  A
C460        C461   1.419       .  A
C460        C465   1.451       .  S
C461        C462   1.417   1_655  A
C461        C468   1.451       .  S
C462        C463   1.415       .  A
C463        C464   1.416       .  A
C463        C466   1.451       .  S
C464        C467   1.451       .  S
C465        N472   1.157       .  T
C466        N471   1.157       .  T
C467        N469   1.157       .  T
C468        N470   1.157       .  T
C473        C474   1.420       .  A
C473        C478   1.415       .  A
C474        C475   1.413       .  A
C474        C479   1.452       .  S
C475        C476   1.413       .  A
C475        C482   1.452       .  S
C476        C477   1.416       .  A
C477        C478   1.409       .  A
C477        C480   1.453       .  S
C478        C481   1.453       .  S
C479        N486   1.158       .  T
C480        N485   1.157       .  T
C481        N483   1.157       .  T
C482        N484   1.157       .  T
C487        C488   1.418   1_455  A
C487        C492   1.418       .  A
C488        C489   1.421       .  A
C488        C493   1.451       .  S
C489        C490   1.418   1_655  A
C489        C496   1.450       .  S
C490        C491   1.419       .  A
C491        C492   1.424       .  A
C491        C494   1.451       .  S
C492        C495   1.450       .  S
C493        N500   1.157       .  T
C494        N499   1.158       .  T
C495        N497   1.157       .  T
C496        N498   1.157       .  T
C501        C502   1.413       .  A
C501        C506   1.417       .  A
C502        C503   1.414       .  A
C502        C507   1.452       .  S
C503        C504   1.421       .  A
C503        C510   1.452       .  S
C504        C505   1.418       .  A
C505        C506   1.413       .  A
C505        C508   1.452       .  S
C506        C509   1.453       .  S
C507        N514   1.157       .  T
C508        N513   1.158       .  T
C509        N511   1.158       .  T
C510        N512   1.158       .  T
C515        C516   1.419       .  A
C515        C520   1.415       .  A
C516        C517   1.414       .  A
C516        C521   1.452       .  S
C517        C518   1.414       .  A
C517        C524   1.452       .  S
C518        C519   1.416       .  A
C519        C520   1.413       .  A
C519        C522   1.452       .  S
C520        C523   1.451       .  S
C521        N528   1.158       .  T
C522        N527   1.157       .  T
C523        N525   1.157       .  T
C524        N526   1.158       .  T
C529        C530   1.416       .  A
C529        C534   1.414       .  A
C530        C531   1.412       .  A
C530        C535   1.453       .  S
C531        C532   1.417       .  A
C531        C538   1.452       .  S
C532        C533   1.421       .  A
C533        C534   1.414       .  A
C533        C536   1.452       .  S
C534        C537   1.452       .  S
C535        N542   1.157       .  T
C536        N541   1.158       .  T
C537        N539   1.157       .  T
C538        N540   1.157       .  T
C543        C544   1.417       .  A
C543        C548   1.415       .  A
C544        C545   1.410       .  A
C544        C549   1.453       .  S
C545        C546   1.416       .  A
C545        C552   1.453       .  S
C546        C547   1.420       .  A
C547        C548   1.415       .  A
C547        C550   1.452       .  S
C548        C551   1.452       .  S
C549        N556   1.157       .  T
C550        N555   1.158       .  T
C551        N553   1.158       .  T
C552        N554   1.157       .  T
C557        C558   1.413       .  A
C557        C562   1.418       .  A
C558        C559   1.414       .  A
C558        C563   1.451       .  S
C559        C560   1.419       .  A
C559        C566   1.451       .  S
C560        C561   1.416       .  A
C561        C562   1.413       .  A
C561        C564   1.452       .  S
C562        C565   1.452       .  S
C563        N570   1.157       .  T
C564        N569   1.157       .  T
C565        N567   1.157       .  T
C566        N568   1.158       .  T
C571        C572   1.410       .  A
C571        C576   1.416       .  A
C572        C573   1.414       .  A
C572        C577   1.451       .  S
C573        C574   1.422       .  A
C573        C580   1.451       .  S
C574        C575   1.419       .  A
C575        C576   1.412       .  A
C575        C578   1.452       .  S
C576        C579   1.453       .  S
C577        N584   1.157       .  T
C578        N583   1.158       .  T
C579        N581   1.158       .  T
C580        N582   1.157       .  T
C585        C586   1.418       .  A
C585        C590   1.418       .  A
C586        C587   1.422       .  A
C586        C591   1.451       .  S
C587        C588   1.420       .  A
C587        C594   1.451       .  S
C588        C589   1.419       .  A
C589        C590   1.423       .  A
C589        C592   1.450       .  S
C590        C593   1.451       .  S
C591        N598   1.157       .  T
C592        N597   1.157       .  T
C593        N595   1.157       .  T
C594        N596   1.158       .  T
C599        C600   1.420       .  A
C599        C604   1.421       .  A
C600        C601   1.421   1_455  A
C600        C605   1.451       .  S
C601        C602   1.420       .  A
C601        C608   1.452       .  S
C602        C603   1.420       .  A
C603        C604   1.424   1_655  A
C603        C606   1.451       .  S
C604        C607   1.451       .  S
C605        N612   1.158       .  T
C606        N611   1.158       .  T
C607        N609   1.158       .  T
C608        N610   1.157       .  T
C613        C614   1.419       .  A
C613        C618   1.414       .  A
C614        C615   1.411       .  A
C614        C619   1.452       .  S
C615        C616   1.413       .  A
C615        C622   1.452       .  S
C616        C617   1.416       .  A
C617        C618   1.410       .  A
C617        C620   1.453       .  S
C618        C621   1.451       .  S
C619        N626   1.157       .  T
C620        N625   1.158       .  T
C621        N623   1.157       .  T
C622        N624   1.157       .  T
C627        C628   1.414       .  A
C627        C632   1.410       .  A
C628        C629   1.410       .  A
C628        C633   1.454       .  S
C629        C630   1.418       .  A
C629        C636   1.452       .  S
C630        C631   1.420       .  A
C631        C632   1.414       .  A
C631        C634   1.452       .  S
C632        C635   1.451       .  S
C633        N640   1.157       .  T
C634        N639   1.158       .  T
C635        N637   1.157       .  T
C636        N638   1.157       .  T
