geometry optimzed in LAMMPS
_audit_creation_date              2020-11-30 
_audit_creation_method            'lammps2cif' 
_symmetry_space_group_name_H-M    'P1' 
_symmetry_Int_Tables_number       1 
_symmetry_cell_setting            triclinic 
loop_ 
_symmetry_equiv_pos_as_xyz 
  x,y,z 
_cell_length_a                    58.34201522 
_cell_length_b                    58.44349290867618 
_cell_length_c                    58.42392775399962 
_cell_angle_alpha                 90.01399233434367 
_cell_angle_beta                  89.84281659468532 
_cell_angle_gamma                 90.0282991894239 
loop_ 
_atom_site_label 
_atom_site_type_symbol 
_atom_site_fract_x 
_atom_site_fract_y 
_atom_site_fract_z 
_atom_site_charge 
In1        In  0.49491938  0.31159273  0.12164263     1.36900
C2          C  0.49667757  0.30251733  0.07712668     0.77800
O3          O  0.45704361  0.31524932  0.12885766    -0.60600
O4          O  0.47701918  0.34511831  0.12514283    -0.51500
C5          C  0.49466473  0.27672613  0.15077659     0.70500
O6          O  0.48300909  0.27671619  0.13265972    -0.46400
C7          C  0.53319488  0.33496315  0.12845670     0.75200
O8          O  0.50568783  0.28961598  0.09186109    -0.58200
O9          O  0.51594503  0.33678656  0.14139068    -0.48300
O10         O  0.48589948  0.31927718  0.08535106    -0.54700
C11         C  0.45739190  0.33681158  0.12856022     0.85400
O12         O  0.50660810  0.29438450  0.15379807    -0.56500
O13         O  0.53098517  0.32075036  0.11238099    -0.59800
In14       In  0.49927083  0.30943050  0.86101842     1.36900
C15         C  0.50096809  0.30124739  0.90576819     0.77800
O16         O  0.53740692  0.31530798  0.86095435    -0.60600
O17         O  0.51533750  0.34374440  0.85620493    -0.51500
C18         C  0.50115425  0.27497209  0.83101311     0.70500
O19         O  0.48759487  0.27507480  0.84785810    -0.46400
C20         C  0.45997120  0.32987041  0.85008295     0.75200
O21         O  0.50532320  0.28594381  0.89117563    -0.58200
O22         O  0.47835498  0.33310575  0.83920201    -0.48300
O23         O  0.49603948  0.32042170  0.89736314    -0.54700
C24         C  0.53565297  0.33657122  0.85760883     0.85400
O25         O  0.51380784  0.29236132  0.82997230    -0.56500
O26         O  0.46153957  0.31536136  0.86596126    -0.59800
In27       In  0.31585667  0.49035522  0.85787638     1.36900
C28         C  0.30914297  0.48892970  0.90290700     0.77800
O29         O  0.32063829  0.45202751  0.85490550    -0.60600
O30         O  0.34866355  0.47355544  0.84735201    -0.51500
C31         C  0.28147935  0.48951625  0.82785924     0.70500
O32         O  0.30042939  0.49895332  0.82391515    -0.46400
C33         C  0.33685109  0.53065941  0.85425631     0.75200
O34         O  0.29421596  0.49655852  0.88929403    -0.58200
O35         O  0.34141194  0.51387697  0.84152562    -0.48300
O36         O  0.32725955  0.48197521  0.89336648    -0.54700
C37         C  0.34134072  0.45334544  0.84879548     0.85400
O38         O  0.27971165  0.48091606  0.84753280    -0.56500
O39         O  0.32092110  0.52709349  0.86842755    -0.59800
In40       In  0.31402450  0.49441530  0.12012887     1.36900
C41         C  0.30928288  0.49299640  0.07489620     0.77800
O42         O  0.32181626  0.53158617  0.11354733    -0.60600
O43         O  0.34523714  0.51225397  0.13342179    -0.51500
C44         C  0.27717262  0.49720114  0.14739027     0.70500
O45         O  0.27905871  0.48238470  0.13190688    -0.46400
C46         C  0.33412481  0.45504747  0.13128818     0.75200
O47         O  0.29400978  0.50109813  0.08789664    -0.58200
O48         O  0.33976184  0.47393832  0.14003668    -0.48300
O49         O  0.32723366  0.48664979  0.08498250    -0.54700
C50         C  0.34021611  0.53141098  0.12485700     0.85400
O51         O  0.29413531  0.51032884  0.14906728    -0.56500
O52         O  0.31759137  0.45626589  0.11752860    -0.59800
In53       In  0.68430938  0.49271857  0.86627034     1.36900
C54         C  0.69134310  0.48776519  0.91123657     0.77800
O55         O  0.67246318  0.52807786  0.87562750    -0.60600
O56         O  0.65892865  0.51281686  0.84564469    -0.51500
C57         C  0.72032023  0.49609587  0.83755708     0.70500
O58         O  0.70815105  0.47840288  0.83944537    -0.46400
C59         C  0.65936244  0.45567913  0.85757930     0.75200
O60         O  0.70767288  0.48978259  0.89717239    -0.58200
O61         O  0.65304760  0.47564152  0.85249038    -0.48300
O62         O  0.67178406  0.48889913  0.90232257    -0.54700
C63         C  0.65890492  0.52980277  0.85893518     0.85400
O64         O  0.71434340  0.51192706  0.85089581    -0.56500
O65         O  0.67887554  0.45455785  0.86681561    -0.59800
In66       In  0.68095223  0.49332395  0.12813214     1.36900
C67         C  0.68838489  0.48920972  0.08317922     0.77800
O68         O  0.67523279  0.45532080  0.12838412    -0.60600
O69         O  0.64702860  0.47709079  0.13501303    -0.51500
C70         C  0.71552382  0.49282996  0.15811730     0.70500
O71         O  0.71595927  0.50433588  0.13988066    -0.46400
C72         C  0.66113379  0.53352417  0.13686332     0.75200
O73         O  0.70384574  0.48555162  0.09778632    -0.58200
O74         O  0.65701344  0.51571215  0.14828717    -0.48300
O75         O  0.66944817  0.49515529  0.09168499    -0.54700
C76         C  0.65405380  0.45683655  0.13252616     0.85400
O77         O  0.69744408  0.48139283  0.16075713    -0.56500
O78         O  0.67600240  0.53090854  0.12139802    -0.59800
In79       In  0.49801263  0.67505224  0.86935432     1.36900
C80         C  0.49580318  0.69020798  0.91241870     0.77800
O81         O  0.45997183  0.66963181  0.86856463    -0.60600
O82         O  0.48133334  0.64135647  0.86132873    -0.51500
C83         C  0.49813280  0.70788627  0.83751393     0.70500
O84         O  0.51610961  0.70087543  0.84706809    -0.46400
C85         C  0.53531451  0.64923972  0.86407870     0.75200
O86         O  0.50440829  0.70206300  0.89653917    -0.58200
O87         O  0.52049459  0.65167501  0.84858306    -0.48300
O88         O  0.48876401  0.67086374  0.90617132    -0.54700
C89         C  0.46110886  0.64866513  0.86367026     0.85400
O90         O  0.48006624  0.69855094  0.84466798    -0.56500
O91         O  0.53092116  0.65998310  0.88229225    -0.59800
In92       In  0.49976218  0.67627922  0.12592668     1.36900
C93         C  0.50356653  0.68765148  0.08172203     0.77800
O94         O  0.53624799  0.67151423  0.13716423    -0.60600
O95         O  0.51763891  0.64233663  0.12663805    -0.51500
C96         C  0.50022694  0.71058989  0.15639027     0.70500
O97         O  0.50994253  0.71171046  0.13716464    -0.46400
C98         C  0.46022802  0.65369966  0.13064890     0.75200
O99         O  0.49094298  0.69849145  0.09554665    -0.58200
O100        O  0.47770326  0.64962635  0.14256759    -0.48300
O101        O  0.51409499  0.67122217  0.09074854    -0.54700
C102        C  0.53645319  0.65022372  0.13370352     0.85400
O103        O  0.49021315  0.69181223  0.15989232    -0.56500
O104        O  0.46294755  0.66954723  0.11624190    -0.59800
In105      In  0.13203285  0.49880238  0.66961521     1.36900
C106        C  0.08726454  0.49820096  0.67844020     0.77800
O107        O  0.12188063  0.53561267  0.66489652    -0.60600
O108        O  0.14825282  0.52207334  0.64372057    -0.51500
C109        C  0.16073561  0.49592405  0.70536942     0.70500
O110        O  0.15900404  0.51345959  0.69302860    -0.46400
C111        C  0.14031178  0.46345078  0.64142274     0.75200
O112        O  0.10207734  0.50052491  0.69395453    -0.58200
O113        O  0.14903573  0.48299240  0.63862646    -0.48300
O114        O  0.09543534  0.49629763  0.65853892    -0.54700
C115        C  0.13560346  0.53892946  0.64851929     0.85400
O116        O  0.14774274  0.47991201  0.69929722    -0.56500
O117        O  0.12811099  0.46196337  0.65915107    -0.59800
In118      In  0.87043162  0.49926609  0.67755754     1.36900
C119        C  0.91548261  0.50058077  0.68477490     0.77800
O120        O  0.87597140  0.46165765  0.67138888    -0.60600
O121        O  0.84830552  0.47786567  0.65462650    -0.51500
C122        C  0.84147033  0.50027052  0.71324822     0.70500
O123        O  0.86008273  0.48938221  0.71331862    -0.46400
C124        C  0.86800588  0.53589617  0.65053888     0.75200
O125        O  0.90120254  0.50710844  0.69965615    -0.58200
O126        O  0.86550950  0.51574996  0.64333959    -0.48300
O127        O  0.90656984  0.49322416  0.66660471    -0.54700
C128        C  0.85973067  0.45976846  0.65734901     0.85400
O129        O  0.83777311  0.51073158  0.69476765    -0.56500
O130        O  0.87152374  0.53743567  0.67177190    -0.59800
In131      In  0.87240475  0.68977479  0.49717431     1.36900
C132        C  0.91739108  0.69671099  0.49692863     0.77800
O133        O  0.87774109  0.68265706  0.53483866    -0.60600
O134        O  0.86586097  0.65594187  0.51346996    -0.51500
C135        C  0.84239614  0.72407794  0.50115174     0.70500
O136        O  0.85896798  0.72453186  0.48728341    -0.46400
C137        C  0.85950178  0.66890722  0.45874464     0.75200
O138        O  0.90355599  0.71169296  0.50404905    -0.58200
O139        O  0.85135238  0.66413853  0.47815262    -0.48300
O140        O  0.90809388  0.67905504  0.48884845    -0.54700
C141        C  0.87192300  0.66191983  0.53326141     0.85400
O142        O  0.84154530  0.70620293  0.51307021    -0.56500
O143        O  0.87354176  0.68533892  0.45878524    -0.59800
In144      In  0.13285695  0.68653861  0.49383099     1.36900
C145        C  0.08897334  0.69858370  0.49407982     0.77800
O146        O  0.14092657  0.67976750  0.45660319    -0.60600
O147        O  0.12386126  0.65409267  0.47561245    -0.51500
C148        C  0.16366502  0.72038407  0.49502315     0.70500
O149        O  0.14258676  0.72359486  0.49849184    -0.46400
C150        C  0.14292115  0.66213983  0.53090574     0.75200
O151        O  0.09863432  0.68903548  0.51076966    -0.58200
O152        O  0.15056586  0.65725214  0.51127518    -0.48300
O153        O  0.10217747  0.70313364  0.47756614    -0.54700
C154        C  0.13201115  0.66011620  0.45654310     0.85400
O155        O  0.16870614  0.69988799  0.49090948    -0.56500
O156        O  0.13079643  0.67994890  0.53152332    -0.59800
In157      In  0.50138490  0.86549400  0.68651401     1.36900
C158        C  0.50428586  0.90957153  0.69767263     0.77800
O159        O  0.53928752  0.86416184  0.67820126    -0.60600
O160        O  0.51592278  0.84984287  0.65478276    -0.51500
C161        C  0.49852294  0.83441075  0.72019152     0.70500
O162        O  0.51596433  0.84673530  0.71713397    -0.46400
C163        C  0.46376399  0.86594839  0.66053188     0.75200
O164        O  0.49515942  0.89495906  0.71074308    -0.58200
O165        O  0.47883913  0.85052426  0.65945226    -0.48300
O166        O  0.51287158  0.90134163  0.67965621    -0.54700
C167        C  0.53647952  0.85454263  0.65906741     0.85400
O168        O  0.48251191  0.83867778  0.70655360    -0.56500
O169        O  0.46770330  0.88091221  0.67555265    -0.59800
In170      In  0.49990940  0.12451514  0.67249576     1.36900
C171        C  0.49988209  0.08040288  0.68536531     0.77800
O172        O  0.46198978  0.12362196  0.66507891    -0.60600
O173        O  0.48418458  0.13855631  0.64063907    -0.51500
C174        C  0.49917691  0.15259611  0.70883704     0.70500
O175        O  0.48234465  0.15017831  0.69558040    -0.46400
C176        C  0.53678955  0.13183751  0.64598717     0.75200
O177        O  0.50902897  0.09603445  0.69703767    -0.58200
O178        O  0.52597151  0.14767775  0.65584190    -0.48300
O179        O  0.49011444  0.08763065  0.66758541    -0.54700
C180        C  0.46391667  0.13310136  0.64572154     0.85400
O181        O  0.51607112  0.14024981  0.70363343    -0.56500
O182        O  0.52896780  0.11220327  0.65028134    -0.59800
In183      In  0.68760243  0.12853554  0.49023490     1.36900
C184        C  0.70012067  0.08475391  0.48979591     0.77800
O185        O  0.68070414  0.12986388  0.52821849    -0.60600
O186        O  0.65520592  0.14206395  0.50576503    -0.51500
C187        C  0.72129047  0.15975573  0.49114724     0.70500
O188        O  0.72494240  0.13857536  0.49257632    -0.46400
C189        C  0.66144606  0.12866135  0.45292382     0.75200
O190        O  0.70288301  0.09772825  0.47279170    -0.58200
O191        O  0.65600474  0.11851962  0.47116970    -0.48300
O192        O  0.69261127  0.09455755  0.50748053    -0.54700
C193        C  0.66077813  0.13795103  0.52616785     0.85400
O194        O  0.70039866  0.16477004  0.48923886    -0.56500
O195        O  0.68039068  0.13907287  0.45376561    -0.59800
In196      In  0.68002049  0.87045444  0.49916282     1.36900
C197        C  0.69270792  0.91428131  0.49806834     0.77800
O198        O  0.67357008  0.86122891  0.46214990    -0.60600
O199        O  0.64786434  0.87921897  0.48034381    -0.51500
C200        C  0.71519034  0.84113059  0.50088401     0.70500
O201        O  0.71705424  0.86213915  0.50516684    -0.46400
C202        C  0.65542650  0.86096375  0.53627266     0.75200
O203        O  0.69945294  0.89987960  0.48345579    -0.58200
O204        O  0.65133222  0.85193013  0.51711708    -0.48300
O205        O  0.67988115  0.90597524  0.51331377    -0.54700
C206        C  0.65408489  0.87050689  0.46163761     0.85400
O207        O  0.69501628  0.83505099  0.49620212    -0.56500
O208        O  0.67298708  0.87349515  0.53675044    -0.59800
In209      In  0.49746026  0.86551863  0.31083296     1.36900
C210        C  0.50247008  0.90850931  0.29639749     0.77800
O211        O  0.46044531  0.87249659  0.31864039    -0.60600
O212        O  0.47771599  0.84833654  0.33918994    -0.51500
C213        C  0.49492299  0.83386348  0.27769410     0.70500
O214        O  0.49024832  0.85461587  0.27434134    -0.46400
C215        C  0.53343713  0.86531582  0.33911789     0.75200
O216        O  0.51724187  0.89324652  0.29249912    -0.58200
O217        O  0.51420149  0.87352701  0.34445608    -0.48300
O218        O  0.48474478  0.90138976  0.30646331    -0.54700
C219        C  0.45955711  0.85954981  0.33585121     0.85400
O220        O  0.50064958  0.82938560  0.29794104    -0.56500
O221        O  0.53421633  0.85682743  0.31929445    -0.59800
In222      In  0.50434233  0.12301055  0.30439622     1.36900
C223        C  0.50428808  0.07915303  0.29241389     0.77800
O224        O  0.54143687  0.13228714  0.31056245    -0.60600
O225        O  0.52394510  0.11273833  0.33561830    -0.51500
C226        C  0.50196451  0.15269615  0.26978220     0.70500
O227        O  0.49782536  0.13167403  0.26745228    -0.46400
C228        C  0.46769260  0.13512444  0.32891798     0.75200
O229        O  0.51866378  0.09314673  0.28430433    -0.58200
O230        O  0.48758753  0.14236074  0.33317120    -0.48300
O231        O  0.48977183  0.08793302  0.30578478    -0.54700
C232        C  0.54243732  0.12202066  0.32950832     0.85400
O233        O  0.50744379  0.15834653  0.28983732    -0.56500
O234        O  0.46650092  0.12199428  0.31184444    -0.59800
In235      In  0.31942994  0.13314353  0.48647403     1.36900
C236        C  0.30749385  0.08908262  0.48611745     0.77800
O237        O  0.32648898  0.13706464  0.44868507    -0.60600
O238        O  0.35336553  0.14395216  0.47175432    -0.51500
C239        C  0.28417550  0.16227438  0.48334646     0.70500
O240        O  0.28173216  0.14084938  0.48314554    -0.46400
C241        C  0.34191447  0.13526962  0.52625174     0.75200
O242        O  0.30029889  0.10284613  0.50115594    -0.58200
O243        O  0.34575272  0.12046571  0.51110263    -0.48300
O244        O  0.31932398  0.09831863  0.47059504    -0.54700
C245        C  0.34720399  0.14263538  0.45114472     0.85400
O246        O  0.30473770  0.16862848  0.48522627    -0.56500
O247        O  0.32670624  0.14961772  0.52090123    -0.59800
In248      In  0.31727797  0.87514071  0.49968356     1.36900
C249        C  0.30313759  0.91868635  0.50132925     0.77800
O250        O  0.32485470  0.87186611  0.53732139    -0.60600
O251        O  0.35251969  0.87088663  0.51390217    -0.51500
C252        C  0.28184669  0.84614637  0.50031738     0.70500
O253        O  0.28180646  0.86449910  0.48906393    -0.46400
C254        C  0.34287513  0.86780820  0.46250758     0.75200
O255        O  0.30146841  0.90638035  0.48369889    -0.58200
O256        O  0.33152721  0.85203777  0.47197600    -0.48300
O257        O  0.31081084  0.90815080  0.51844463    -0.54700
C258        C  0.34629076  0.87058053  0.53455248     0.85400
O259        O  0.29992972  0.84292539  0.51156700    -0.56500
O260        O  0.34100066  0.88701138  0.47209938    -0.59800
In261      In  0.12843284  0.50349120  0.30677014     1.36900
C262        C  0.08387175  0.50620820  0.29788927     0.77800
O263        O  0.12917117  0.46521396  0.30925010    -0.60600
O264        O  0.14293768  0.48448535  0.33655392    -0.51500
C265        C  0.15670029  0.50371172  0.27084070     0.70500
O266        O  0.13521133  0.50413153  0.26885983    -0.46400
C267        C  0.13256859  0.53888967  0.33490988     0.75200
O268        O  0.09740463  0.52271138  0.29461840    -0.58200
O269        O  0.12044001  0.52163541  0.33945168    -0.48300
O270        O  0.09340229  0.48791431  0.30409228    -0.54700
C271        C  0.13810946  0.46492713  0.32884934     0.85400
O272        O  0.16355444  0.50355606  0.29125872    -0.56500
O273        O  0.14281479  0.53805628  0.31588436    -0.59800
In274      In  0.86788306  0.51048653  0.31394162     1.36900
C275        C  0.91205358  0.50751164  0.30246455     0.77800
O276        O  0.87784187  0.54699637  0.32152354    -0.60600
O277        O  0.85002504  0.53256368  0.33987276    -0.51500
C278        C  0.83819433  0.50764812  0.27902753     0.70500
O279        O  0.85860110  0.50088247  0.27783012    -0.46400
C280        C  0.86189544  0.47594229  0.34320477     0.75200
O281        O  0.89929103  0.52338604  0.29532065    -0.58200
O282        O  0.86874762  0.49554695  0.34900447    -0.48300
O283        O  0.90204342  0.49315762  0.31508261    -0.54700
C284        C  0.86314567  0.54947454  0.33717966     0.85400
O285        O  0.83314304  0.51633158  0.29809844    -0.56500
O286        O  0.85799504  0.47394147  0.32206125    -0.59800
In287      In  0.12757921  0.31510274  0.48236464     1.36900
C288        C  0.08522573  0.29811408  0.48712674     0.77800
O289        O  0.14636893  0.32927515  0.51292471    -0.60600
O290        O  0.11945194  0.34879062  0.49887408    -0.51500
C291        C  0.15728240  0.28021317  0.48259783     0.70500
O292        O  0.15208885  0.29104644  0.46473392    -0.46400
C293        C  0.13333035  0.33982047  0.44466563     0.75200
O294        O  0.09727666  0.29493841  0.46949214    -0.58200
O295        O  0.14903727  0.33704754  0.45918388    -0.48300
O296        O  0.09536103  0.30888452  0.50275861    -0.54700
C297        C  0.13452809  0.34729780  0.51418148     0.85400
O298        O  0.14643374  0.28667838  0.50009903    -0.56500
O299        O  0.11471986  0.33000095  0.44957316    -0.59800
In300      In  0.87018596  0.32060639  0.49529286     1.36900
C301        C  0.91487434  0.31122125  0.49222714     0.77800
O302        O  0.87421376  0.33057575  0.45832016    -0.60600
O303        O  0.85963484  0.35465872  0.48135281    -0.51500
C304        C  0.83994129  0.28614787  0.49245016     0.70500
O305        O  0.85519344  0.28724764  0.50763993    -0.46400
C306        C  0.86333280  0.33999711  0.53601536     0.75200
O307        O  0.89972745  0.29578693  0.49095254    -0.58200
O308        O  0.84859186  0.34056104  0.52030087    -0.48300
O309        O  0.90681885  0.33101981  0.49466384    -0.54700
C310        C  0.86649439  0.35052853  0.46129037     0.85400
O311        O  0.84067599  0.30241637  0.47837160    -0.56500
O312        O  0.88113490  0.32887460  0.53110980    -0.59800
C313        C  0.02463951  0.28838268  0.50932444    -0.22200
C314        C  0.01220429  0.29146419  0.48908276     0.09800
C315        C  0.02394012  0.29312832  0.46803283     0.10200
C316        C  0.04797435  0.29322500  0.46785049    -0.17100
C317        C  0.06057920  0.29199263  0.48828141    -0.27500
C318        C  0.04872585  0.28828466  0.50919255     0.18500
C319        C  0.98724296  0.29584216  0.49048407     0.12500
C320        C  0.01105752  0.29567620  0.44585942    -0.11900
H321        H  0.05690197  0.29581533  0.45175960     0.12800
C322        C  0.06070580  0.28399356  0.53160453    -0.22700
H323        H  0.01549358  0.28668823  0.52541755     0.08400
C324        C  0.97092517  0.27809717  0.49123824     0.04700
C325        C  0.94746138  0.28360884  0.49149710    -0.20000
C326        C  0.93995512  0.30651446  0.49139750    -0.12200
C327        C  0.95661870  0.32429622  0.49102446     0.13400
C328        C  0.97995329  0.31862110  0.49050071    -0.22700
C329        C  0.97831772  0.25343689  0.49177440    -0.05700
H330        H  0.93494704  0.26991077  0.49198103     0.15000
C331        C  0.95031894  0.34933959  0.49108225    -0.15900
H332        H  0.99274672  0.33207945  0.49000056     0.09300
H333        H  0.05422496  0.26779018  0.53916356     0.07200
H334        H  0.05703923  0.29822820  0.54365767     0.08400
H335        H  0.07948384  0.28202872  0.52977064     0.07400
H336        H  0.00071526  0.31160918  0.44615374     0.02300
H337        H  0.99948641  0.28078644  0.44345735     0.02800
H338        H  0.02284012  0.29654576  0.43092046     0.06300
H339        H  0.96339390  0.24163696  0.49226131     0.05200
H340        H  0.98886156  0.25027567  0.50724543    -0.00500
H341        H  0.98862672  0.24945180  0.47628270     0.01000
H342        H  0.94091265  0.35364720  0.50705276     0.04600
H343        H  0.93964859  0.35337383  0.47590922     0.06600
H344        H  0.96569037  0.36054582  0.49037079     0.07400
C345        C  0.84861467  0.41874068  0.37230673    -0.22200
C346        C  0.86077250  0.42142651  0.39277623     0.09800
C347        C  0.87216165  0.44218668  0.39727199     0.10200
C348        C  0.87159706  0.45966381  0.38092109    -0.17100
C349        C  0.85993481  0.45699890  0.36004446    -0.27500
C350        C  0.84769546  0.43638697  0.35597140     0.18500
C351        C  0.86143708  0.40237274  0.40943598     0.12500
C352        C  0.88498801  0.44589560  0.41932672    -0.11900
H353        H  0.88080407  0.47539729  0.38436620     0.12800
C354        C  0.83325653  0.43253995  0.33496522    -0.22700
H355        H  0.83970287  0.40277064  0.36914448     0.08400
C356        C  0.84334915  0.39860696  0.42502292     0.04700
C357        C  0.84549838  0.38135644  0.44156584    -0.20000
C358        C  0.86535026  0.36785001  0.44293373    -0.12200
C359        C  0.88367018  0.37192193  0.42744262     0.13400
C360        C  0.88123092  0.38887947  0.41063217    -0.22700
C361        C  0.82200944  0.41308559  0.42446437    -0.05700
H362        H  0.83160634  0.37842836  0.45357555     0.15000
C363        C  0.90654213  0.35996048  0.42880179    -0.15900
H364        H  0.89525323  0.39222004  0.39887518     0.09300
H365        H  0.81843105  0.42131218  0.33909022     0.07200
H366        H  0.84371286  0.42416293  0.32145890     0.08400
H367        H  0.82580449  0.44870072  0.32845326     0.07400
H368        H  0.89912442  0.43328491  0.42076947     0.02300
H369        H  0.87312636  0.44381679  0.43407254     0.02800
H370        H  0.89258926  0.46330056  0.42025248     0.06300
H371        H  0.80967640  0.40809085  0.43809417     0.05200
H372        H  0.81336294  0.41109955  0.40768176    -0.00500
H373        H  0.82659019  0.43134781  0.42702989     0.01000
H374        H  0.90952637  0.35004844  0.41285854     0.04600
H375        H  0.90814984  0.34827283  0.44357021     0.06600
H376        H  0.92035616  0.37293013  0.43053886     0.07400
C377        C  0.13565993  0.40325124  0.35022558    -0.22200
C378        C  0.14257941  0.40637838  0.37291833     0.09800
C379        C  0.15020881  0.42798921  0.38030074     0.10200
C380        C  0.14988397  0.44636844  0.36497753    -0.17100
C381        C  0.14150678  0.44382477  0.34256172    -0.27500
C382        C  0.13487674  0.42172710  0.33488152     0.18500
C383        C  0.13959029  0.38750819  0.38940754     0.12500
C384        C  0.15771012  0.43184917  0.40467032    -0.11900
H385        H  0.15523162  0.46308007  0.37098217     0.12800
C386        C  0.12634895  0.41739270  0.31093478    -0.22700
H387        H  0.12989559  0.38645377  0.34483523     0.08400
C388        C  0.11844348  0.38421404  0.40064112     0.04700
C389        C  0.11676644  0.36762449  0.41782559    -0.20000
C390        C  0.13583391  0.35449875  0.42426554    -0.12200
C391        C  0.15676320  0.35703575  0.41211756     0.13400
C392        C  0.15840435  0.37377433  0.39498131    -0.22700
C393        C  0.09791389  0.39883336  0.39509356    -0.05700
H394        H  0.10070968  0.36563091  0.42700071     0.15000
C395        C  0.17748612  0.34219597  0.41618437    -0.15900
H396        H  0.17451690  0.37627734  0.38601959     0.09300
H397        H  0.11017001  0.42691907  0.30799308     0.07200
H398        H  0.12268080  0.39897938  0.30795354     0.08400
H399        H  0.13954116  0.42277376  0.29830254     0.07400
H400        H  0.17247724  0.42058843  0.40868131     0.02300
H401        H  0.14336004  0.42788538  0.41655096     0.02800
H402        H  0.16303530  0.44984706  0.40766521     0.06300
H403        H  0.08276721  0.39412483  0.40564754     0.05200
H404        H  0.09326991  0.39667637  0.37680894    -0.00500
H405        H  0.10194611  0.41710415  0.39840449     0.01000
H406        H  0.18313497  0.33455508  0.39970046     0.04600
H407        H  0.17416468  0.32775765  0.42797001     0.06600
H408        H  0.19166094  0.35278922  0.42312528     0.07400
C409        C  0.97173351  0.51509434  0.27645340    -0.22200
C410        C  0.98527950  0.50707609  0.29451680     0.09800
C411        C  0.97473338  0.49804251  0.31426652     0.10200
C412        C  0.95079506  0.49779103  0.31580346    -0.17100
C413        C  0.93703734  0.50640622  0.29809287    -0.27500
C414        C  0.94766730  0.51452751  0.27777846     0.18500
C415        C  0.01054966  0.50807586  0.29267933     0.12500
C416        C  0.98878048  0.48881251  0.33381705    -0.11900
H417        H  0.94278383  0.49137991  0.33129440     0.12800
C418        C  0.93449032  0.52178733  0.25684452    -0.22700
H419        H  0.98000180  0.52154760  0.26111629     0.08400
C420        C  0.02316367  0.49004688  0.28275583     0.04700
C421        C  0.04717684  0.49030115  0.28410746    -0.20000
C422        C  0.05879128  0.50806605  0.29537228    -0.12200
C423        C  0.04602397  0.52617172  0.30535071     0.13400
C424        C  0.02207684  0.52614241  0.30338597    -0.22700
C425        C  0.01120495  0.47024517  0.27139767    -0.05700
H426        H  0.05693264  0.47633245  0.27672855     0.15000
C427        C  0.05660679  0.54487824  0.31966538    -0.15900
H428        H  0.01220033  0.53967046  0.31141669     0.09300
H429        H  0.94067200  0.51190329  0.24180572     0.07200
H430        H  0.93739629  0.54027545  0.25357744     0.08400
H431        H  0.91585544  0.51858449  0.25816240     0.07400
H432        H  0.99979870  0.50256789  0.34090954     0.02300
H433        H  0.99977264  0.47456598  0.32767463     0.02800
H434        H  0.97779482  0.48219619  0.34789285     0.06300
H435        H  0.02360127  0.45754073  0.26454516     0.05200
H436        H  0.00062607  0.47658340  0.25696539    -0.00500
H437        H  0.99995175  0.46142732  0.28396341     0.01000
H438        H  0.05366310  0.56169860  0.31136475     0.04600
H439        H  0.07518796  0.54275664  0.32244647     0.06600
H440        H  0.04843348  0.54503859  0.33686131     0.07400
C441        C  0.22464362  0.18901786  0.47640174    -0.22200
C442        C  0.22951820  0.21207915  0.48072047     0.09800
C443        C  0.25229524  0.21878772  0.48514942     0.10200
C444        C  0.26959633  0.20213712  0.48582610    -0.17100
C445        C  0.26482902  0.17885831  0.48187438    -0.27500
C446        C  0.24198142  0.17231718  0.47663193     0.18500
C447        C  0.21046704  0.22890117  0.48091474     0.12500
C448        C  0.25843465  0.24358012  0.48875237    -0.11900
H449        H  0.28699338  0.20742230  0.48954825     0.12800
C450        C  0.23561660  0.14799608  0.47087617    -0.22700
H451        H  0.20707670  0.18408078  0.47285721     0.08400
C452        C  0.20005541  0.23650194  0.46053915     0.04700
C453        C  0.18247989  0.25288904  0.46170241    -0.20000
C454        C  0.17502412  0.26192044  0.48279134    -0.12200
C455        C  0.18552166  0.25411006  0.50323997     0.13400
C456        C  0.20297631  0.23761455  0.50197202    -0.22700
C457        C  0.20785669  0.22772206  0.43755460    -0.05700
H458        H  0.17466089  0.25880232  0.44598271     0.15000
C459        C  0.17906432  0.26341676  0.52644699    -0.15900
H460        H  0.21110843  0.23162333  0.51752228     0.09300
H461        H  0.24579653  0.14206829  0.45592294     0.07200
H462        H  0.21720126  0.14636652  0.46636245     0.08400
H463        H  0.23881404  0.13671890  0.48580413     0.07400
H464        H  0.24944179  0.25036260  0.50406941     0.02300
H465        H  0.25334870  0.25369351  0.47350102     0.02800
H466        H  0.27713581  0.24592532  0.49138414     0.06300
H467        H  0.19828782  0.23585103  0.42330598     0.05200
H468        H  0.20506475  0.20896882  0.43650864    -0.00500
H469        H  0.22636956  0.23146073  0.43514750     0.01000
H470        H  0.18958551  0.25579704  0.54030028     0.04600
H471        H  0.16085230  0.25940858  0.53025638     0.06600
H472        H  0.18180927  0.28221992  0.52684249     0.07400
C473        C  0.31578794  0.02459875  0.48226671    -0.22200
C474        C  0.29580634  0.01659883  0.49287900     0.09800
C475        C  0.27914981  0.03234067  0.50048810     0.10200
C476        C  0.28318827  0.05593888  0.49781135    -0.17100
C477        C  0.30330184  0.06405159  0.48722603    -0.27500
C478        C  0.31975685  0.04806124  0.47921356     0.18500
C479        C  0.29345529  0.99157628  0.49630088     0.12500
C480        C  0.25713031  0.02418196  0.51120783    -0.11900
H481        H  0.27057213  0.06809611  0.50395247     0.12800
C482        C  0.34200988  0.05545476  0.46827948    -0.22700
H483        H  0.32849692  0.01230793  0.47655633     0.08400
C484        C  0.28721347  0.97701863  0.47814900     0.04700
C485        C  0.28938488  0.95325835  0.48080205    -0.20000
C486        C  0.29779026  0.94361598  0.50119870    -0.12200
C487        C  0.30261599  0.95832433  0.51996301     0.13400
C488        C  0.30038840  0.98212208  0.51718600    -0.22700
C489        C  0.27869614  0.98664068  0.45582276    -0.05700
H490        H  0.28525762  0.94222901  0.46648100     0.15000
C491        C  0.31081426  0.94940567  0.54273000    -0.15900
H492        H  0.30505543  0.99351956  0.53104703     0.09300
H493        H  0.35319516  0.04063515  0.46415023     0.07200
H494        H  0.35158643  0.06679812  0.48014281     0.08400
H495        H  0.33853125  0.06460291  0.45201424     0.07400
H496        H  0.26089274  0.01410858  0.52685439     0.02300
H497        H  0.24771408  0.01322458  0.49886899     0.02800
H498        H  0.24583839  0.03869469  0.51607022     0.06300
H499        H  0.27421453  0.97290213  0.44348078     0.05200
H500        H  0.29211711  0.99753881  0.44788261    -0.00500
H501        H  0.26312349  0.99710794  0.45895323     0.01000
H502        H  0.32764908  0.94079815  0.54065505     0.04600
H503        H  0.29804769  0.93723015  0.54986801     0.06600
H504        H  0.31308892  0.96338509  0.55540673     0.07400
C505        C  0.42728208  0.16404090  0.37121120    -0.22200
C506        C  0.41302084  0.14562115  0.37705714     0.09800
C507        C  0.41541847  0.12459155  0.36540425     0.10200
C508        C  0.43263898  0.12218240  0.34877364    -0.17100
C509        C  0.44769530  0.14023081  0.34367457    -0.27500
C510        C  0.44441899  0.16172497  0.35441780     0.18500
C511        C  0.39640583  0.14809931  0.39617491     0.12500
C512        C  0.40042315  0.10438194  0.37119297    -0.11900
H513        H  0.43504408  0.10576223  0.34049158     0.12800
C514        C  0.45816491  0.18268878  0.34823859    -0.22700
H515        H  0.42508609  0.18029483  0.37989106     0.08400
C516        C  0.40358286  0.14668672  0.41915307     0.04700
C517        C  0.38708430  0.14593044  0.43664640    -0.20000
C518        C  0.36347676  0.14620882  0.43178393    -0.12200
C519        C  0.35636723  0.14876965  0.40870316     0.13400
C520        C  0.37298313  0.14980546  0.39124328    -0.22700
C521        C  0.42863369  0.14509187  0.42517663    -0.05700
H522        H  0.39274331  0.14421311  0.45421624     0.15000
C523        C  0.33145021  0.15030787  0.40216317    -0.15900
H524        H  0.36768549  0.15112637  0.37352027     0.09300
H525        H  0.46875363  0.18798647  0.36308181     0.07200
H526        H  0.44631383  0.19686640  0.34379716     0.08400
H527        H  0.46947350  0.18009011  0.33321195     0.07400
H528        H  0.38222246  0.10856579  0.36766088     0.02300
H529        H  0.40234647  0.09997940  0.38957706     0.02800
H530        H  0.40501306  0.08905571  0.36092071     0.06300
H531        H  0.43125975  0.14362770  0.44394279     0.05200
H532        H  0.43774339  0.16065816  0.41917599    -0.00500
H533        H  0.43631259  0.12979109  0.41690562     0.01000
H534        H  0.32927332  0.15346819  0.38354660     0.04600
H535        H  0.32317773  0.16465205  0.41151579     0.06600
H536        H  0.32259516  0.13399887  0.40623686     0.07400
C537        C  0.40591839  0.87516550  0.37005115    -0.22200
C538        C  0.40603049  0.85800715  0.38674428     0.09800
C539        C  0.42237271  0.84032696  0.38551401     0.10200
C540        C  0.43890579  0.84068204  0.36800574    -0.17100
C541        C  0.43958949  0.85843180  0.35173324    -0.27500
C542        C  0.42248755  0.87572930  0.35257728     0.18500
C543        C  0.38998344  0.85995532  0.40632725     0.12500
C544        C  0.42275205  0.82151481  0.40312094    -0.11900
H545        H  0.45179030  0.82734480  0.36746554     0.12800
C546        C  0.42198346  0.89541244  0.33589989    -0.22700
H547        H  0.39321984  0.88867646  0.37124133     0.08400
C548        C  0.39510206  0.87423817  0.42506944     0.04700
C549        C  0.37920715  0.87632717  0.44293828    -0.20000
C550        C  0.35833308  0.86435078  0.44270127    -0.12200
C551        C  0.35319561  0.84994966  0.42383661     0.13400
C552        C  0.36924568  0.84785684  0.40595517    -0.22700
C553        C  0.41746209  0.88710132  0.42632780    -0.05700
H554        H  0.38324870  0.88724622  0.45738952     0.15000
C555        C  0.33079038  0.83736155  0.42124160    -0.15900
H556        H  0.36537731  0.83704389  0.39137902     0.09300
H557        H  0.43810455  0.90543353  0.33715422     0.07200
H558        H  0.40754068  0.90729593  0.33943196     0.08400
H559        H  0.41980775  0.88884041  0.31821347     0.07400
H560        H  0.40620408  0.81213251  0.40287492     0.02300
H561        H  0.42541956  0.82893366  0.42040861     0.02800
H562        H  0.43672245  0.80904692  0.39976688     0.06300
H563        H  0.41881579  0.89729352  0.44231898     0.05200
H564        H  0.41894475  0.89902371  0.41161546    -0.00500
H565        H  0.43198072  0.87483343  0.42587587     0.01000
H566        H  0.32271284  0.84227599  0.40476845     0.04600
H567        H  0.31820794  0.84120462  0.43487602     0.06600
H568        H  0.33403393  0.81864243  0.42107651     0.07400
C569        C  0.52632121  0.96894053  0.28998769    -0.22200
C570        C  0.50653684  0.98071574  0.28335589     0.09800
C571        C  0.48624391  0.96844204  0.27888204     0.10200
C572        C  0.48587009  0.94468884  0.28233123    -0.17100
C573        C  0.50532347  0.93289484  0.29017255    -0.27500
C574        C  0.52598812  0.94521940  0.29381967     0.18500
C575        C  0.50631942  0.00597514  0.28519074     0.12500
C576        C  0.46481372  0.98057149  0.27120067    -0.11900
H577        H  0.47006774  0.93534220  0.27953123     0.12800
C578        C  0.54754086  0.93473147  0.30345545    -0.22700
H579        H  0.54174207  0.97859184  0.29374133     0.08400
C580        C  0.49988797  0.01646826  0.30594705     0.04700
C581        C  0.49924178  0.04032085  0.30731232    -0.20000
C582        C  0.50501693  0.05414802  0.28851600    -0.12200
C583        C  0.51147000  0.04362174  0.26756393     0.13400
C584        C  0.51221278  0.01955920  0.26628163    -0.22700
C585        C  0.49381965  0.00246313  0.32678590    -0.05700
H586        H  0.49449607  0.04826134  0.32341806     0.15000
C587        C  0.51667622  0.05684404  0.24601446    -0.15900
H588        H  0.51699189  0.01133499  0.25033287     0.09300
H589        H  0.55239769  0.94391592  0.31936719     0.07200
H590        H  0.56168804  0.93653141  0.29083383     0.08400
H591        H  0.54594988  0.91649276  0.30802782     0.07400
H592        H  0.46820436  0.98960953  0.25482423     0.02300
H593        H  0.45937682  0.99323097  0.28429458     0.02800
H594        H  0.45041926  0.96843995  0.26847002     0.06300
H595        H  0.48925881  0.01343549  0.34163889     0.05200
H596        H  0.50864789  0.99167476  0.33175410    -0.00500
H597        H  0.47891444  0.99128565  0.32304336     0.01000
H598        H  0.53474757  0.05381317  0.24083749     0.04600
H599        H  0.51390559  0.07547262  0.24771138     0.06600
H600        H  0.50525741  0.05083082  0.23207116     0.07400
C601        C  0.59346762  0.86788919  0.36518892    -0.22200
C602        C  0.58825276  0.86484000  0.38841663     0.09800
C603        C  0.56527489  0.86156536  0.39519583     0.10200
C604        C  0.54794423  0.86179782  0.37860800    -0.17100
C605        C  0.55296336  0.86518950  0.35531297    -0.27500
C606        C  0.57612558  0.86845212  0.34852024     0.18500
C607        C  0.60681082  0.86663938  0.40563011     0.12500
C608        C  0.55907671  0.85763121  0.41994499    -0.11900
H609        H  0.53030251  0.85920548  0.38388182     0.12800
C610        C  0.58332004  0.87386548  0.32430286    -0.22700
H611        H  0.61114365  0.87068818  0.36013768     0.08400
C612        C  0.62180452  0.84829810  0.41026572     0.04700
C613        C  0.63803647  0.85052123  0.42787146    -0.20000
C614        C  0.63931040  0.87054591  0.44112444    -0.12200
C615        C  0.62504442  0.88935367  0.43559462     0.13400
C616        C  0.60883717  0.88702285  0.41807942    -0.22700
C617        C  0.62002634  0.82612517  0.39727039    -0.05700
H618        H  0.64904203  0.83617238  0.43200074     0.15000
C619        C  0.62667622  0.91230375  0.44731650    -0.15900
H620        H  0.59755234  0.90121740  0.41414895     0.09300
H621        H  0.59388748  0.85962088  0.31744790     0.07200
H622        H  0.59377031  0.88975634  0.32420541     0.08400
H623        H  0.56883090  0.87692836  0.31257197     0.07400
H624        H  0.56404012  0.87271289  0.43035818     0.02300
H625        H  0.56819235  0.84227390  0.42641694     0.02800
H626        H  0.54038023  0.85483574  0.42224089     0.06300
H627        H  0.63280288  0.81339783  0.40326924     0.05200
H628        H  0.62307446  0.82923282  0.37877124    -0.00500
H629        H  0.60265576  0.81870767  0.39964694     0.01000
H630        H  0.62860840  0.92594564  0.43422210     0.04600
H631        H  0.64162695  0.91384072  0.45883648     0.06600
H632        H  0.61076158  0.91552976  0.45726530     0.07400
C633        C  0.63798646  0.12602264  0.39197893    -0.22200
C634        C  0.61440557  0.12740457  0.39635758     0.09800
C635        C  0.60655870  0.13007116  0.41904120     0.10200
C636        C  0.62247343  0.13047399  0.43696146    -0.17100
C637        C  0.64613366  0.12869651  0.43277339    -0.27500
C638        C  0.65403526  0.12655852  0.40987663     0.18500
C639        C  0.59803197  0.12543796  0.37711229     0.12500
C640        C  0.58140174  0.13284135  0.42428702    -0.11900
H641        H  0.61638928  0.13236971  0.45441327     0.12800
C642        C  0.67892989  0.12375055  0.40347543    -0.22700
H643        H  0.64387751  0.12397838  0.37447952     0.08400
C644        C  0.59308338  0.14418087  0.36276578     0.04700
C645        C  0.57575742  0.14208275  0.34625130    -0.20000
C646        C  0.56315655  0.12173324  0.34399235    -0.12200
C647        C  0.56931753  0.10242708  0.35729067     0.13400
C648        C  0.58648862  0.10465886  0.37389503    -0.22700
C649        C  0.60541269  0.16663961  0.36556810    -0.05700
H650        H  0.57123368  0.15677413  0.33588751     0.15000
C651        C  0.55862430  0.07912742  0.35416163    -0.15900
H652        H  0.59076788  0.09012984  0.38460939     0.09300
H653        H  0.68453759  0.13865707  0.39308812     0.07200
H654        H  0.68104515  0.10797378  0.39308765     0.08400
H655        H  0.69050039  0.12206227  0.41830387     0.07400
H656        H  0.57184595  0.11739417  0.41874074     0.02300
H657        H  0.57462564  0.14802825  0.41510776     0.02800
H658        H  0.57825088  0.13531079  0.44288215     0.06300
H659        H  0.59924461  0.17965180  0.35318208     0.05200
H660        H  0.62406303  0.16417367  0.36270186    -0.00500
H661        H  0.60256470  0.17334413  0.38313139     0.01000
H662        H  0.57234265  0.06628648  0.35118331     0.04600
H663        H  0.54697269  0.07815380  0.33926445     0.06600
H664        H  0.54898722  0.07432862  0.36985427     0.07400
C665        C  0.77928640  0.19055585  0.48960378    -0.22200
C666        C  0.77234337  0.21327501  0.49286170     0.09800
C667        C  0.74889866  0.21827062  0.49576357     0.10200
C668        C  0.73283394  0.20042431  0.49515267    -0.17100
C669        C  0.73957469  0.17754362  0.49183285    -0.27500
C670        C  0.76325070  0.17256717  0.48906879     0.18500
C671        C  0.78985547  0.23168800  0.49287100     0.12500
C672        C  0.74086020  0.24244388  0.49975236    -0.11900
H673        H  0.71484101  0.20444132  0.49740594     0.12800
C674        C  0.77185032  0.14857322  0.48511016    -0.22700
H675        H  0.79738062  0.18694403  0.48735422     0.08400
C676        C  0.80315298  0.23643765  0.51239799     0.04700
C677        C  0.81944415  0.25411042  0.51157027    -0.20000
C678        C  0.82248595  0.26754753  0.49180057    -0.12200
C679        C  0.80864587  0.26301548  0.47235203     0.13400
C680        C  0.79274135  0.24494883  0.47310946    -0.22700
C681        C  0.79980745  0.22314296  0.53423829    -0.05700
H682        H  0.82961391  0.25766481  0.52665060     0.15000
C683        C  0.81043755  0.27690501  0.45068500    -0.15900
H684        H  0.78225576  0.24124681  0.45827477     0.09300
H685        H  0.76773033  0.13768284  0.50012792     0.07200
H686        H  0.79073473  0.14811894  0.48265588     0.08400
H687        H  0.76383928  0.14133309  0.46948447     0.07400
H688        H  0.74551036  0.25331611  0.48487583     0.02300
H689        H  0.74905939  0.24942575  0.51539782     0.02800
H690        H  0.72198130  0.24333594  0.50207944     0.06300
H691        H  0.81128687  0.22932682  0.54805849     0.05200
H692        H  0.80354434  0.20476936  0.53122195    -0.00500
H693        H  0.78181939  0.22498361  0.54022325     0.01000
H694        H  0.79873875  0.27044366  0.43717390     0.04600
H695        H  0.82819497  0.27609516  0.44386056     0.06600
H696        H  0.80564175  0.29494971  0.45418954     0.07400
C697        C  0.71975734  0.97207551  0.48324964    -0.22200
C698        C  0.70533724  0.98685752  0.49546534     0.09800
C699        C  0.68753580  0.97778139  0.50907294     0.10200
C700        C  0.68445720  0.95404066  0.51006871    -0.17100
C701        C  0.69835231  0.93905718  0.49729990    -0.27500
C702        C  0.71648581  0.94823106  0.48390880     0.18500
C703        C  0.70751602  0.01186713  0.49222894     0.12500
C704        C  0.67125973  0.99320958  0.52192908    -0.11900
H705        H  0.67053685  0.94722274  0.52033260     0.12800
C706        C  0.73247564  0.93318316  0.47032185    -0.22700
H707        H  0.73328323  0.97930664  0.47273150     0.08400
C708        C  0.71924404  0.02582599  0.50802397     0.04700
C709        C  0.71729436  0.04972996  0.50628065    -0.20000
C710        C  0.70408447  0.05985515  0.48895676    -0.12200
C711        C  0.69309903  0.04573614  0.47257506     0.13400
C712        C  0.69524330  0.02192606  0.47432144    -0.22700
C713        C  0.73344656  0.01545678  0.52684209    -0.05700
H714        H  0.72569507  0.06056787  0.51877313     0.15000
C715        C  0.67758598  0.05478315  0.45402488    -0.15900
H716        H  0.68614646  0.01104347  0.46235774     0.09300
H717        H  0.74619772  0.94326579  0.46179709     0.07200
H718        H  0.72282924  0.92407744  0.45674123     0.08400
H719        H  0.74082625  0.92060628  0.48184665     0.07400
H720        H  0.66213667  0.00452349  0.50971194     0.02300
H721        H  0.68086168  0.00391345  0.53431290     0.02800
H722        H  0.65820335  0.98329835  0.53161888     0.06300
H723        H  0.74161586  0.02880057  0.53763160     0.05200
H724        H  0.74720041  0.00472128  0.51924854    -0.00500
H725        H  0.72255554  0.00462899  0.53805245     0.01000
H726        H  0.68466774  0.05004341  0.43701661     0.04600
H727        H  0.67521172  0.07353053  0.45441064     0.06600
H728        H  0.66032021  0.04697563  0.45588615     0.07400
C729        C  0.42728803  0.14637512  0.59316201    -0.22200
C730        C  0.40543858  0.14053455  0.60117989     0.09800
C731        C  0.40260775  0.13349130  0.62408053     0.10200
C732        C  0.42189574  0.13189579  0.63834422    -0.17100
C733        C  0.44406174  0.13696563  0.63019447    -0.27500
C734        C  0.44667373  0.14463817  0.60723704     0.18500
C735        C  0.38642640  0.13955044  0.58442619     0.12500
C736        C  0.37925353  0.12754792  0.63338881    -0.11900
H737        H  0.41964049  0.12620584  0.65585288     0.12800
C738        C  0.46972842  0.15036935  0.59697695    -0.22700
H739        H  0.42924590  0.15157814  0.57544458     0.08400
C740        C  0.37582178  0.15943976  0.57579923     0.04700
C741        C  0.36024359  0.15750146  0.55755502    -0.20000
C742        C  0.35494469  0.13607105  0.54797318    -0.12200
C743        C  0.36405173  0.11603462  0.55816915     0.13400
C744        C  0.38014967  0.11811993  0.57578532    -0.22700
C745        C  0.38113033  0.18261860  0.58571484    -0.05700
H746        H  0.35294387  0.17284607  0.55014412     0.15000
C747        C  0.35690294  0.09215366  0.55144591    -0.15900
H748        H  0.38798499  0.10284354  0.58281403     0.09300
H749        H  0.47773026  0.16466354  0.60659232     0.07200
H750        H  0.46830264  0.15584104  0.57882935     0.08400
H751        H  0.48101566  0.13508447  0.59739383     0.07400
H752        H  0.37198707  0.11284885  0.62381388     0.02300
H753        H  0.36766372  0.14250429  0.63162141     0.02800
H754        H  0.37997246  0.12277540  0.65177171     0.06300
H755        H  0.37103690  0.19633918  0.57730055     0.05200
H756        H  0.39959590  0.18659803  0.58344223    -0.00500
H757        H  0.37690348  0.18271110  0.60426121     0.01000
H758        H  0.37146531  0.08325291  0.54302606     0.04600
H759        H  0.34180742  0.09175683  0.54002140     0.06600
H760        H  0.35193982  0.08244579  0.56703632     0.07400
C761        C  0.58223932  0.15954245  0.60741244    -0.22200
C762        C  0.59287756  0.14009899  0.59828086     0.09800
C763        C  0.58553067  0.11818985  0.60521358     0.10200
C764        C  0.56771363  0.11619458  0.62124199    -0.17100
C765        C  0.55658608  0.13558258  0.63023906    -0.27500
C766        C  0.56401913  0.15763947  0.62312503     0.18500
C767        C  0.61062500  0.14276975  0.58026591     0.12500
C768        C  0.59601116  0.09688324  0.59508879    -0.11900
H769        H  0.56214028  0.09925853  0.62638078     0.12800
C770        C  0.55260500  0.17926750  0.63135995    -0.22700
H771        H  0.58788727  0.17629155  0.60172712     0.08400
C772        C  0.60444900  0.14642819  0.55726617     0.04700
C773        C  0.62142112  0.14577174  0.54025235    -0.20000
C774        C  0.64449821  0.14123748  0.54556755    -0.12200
C775        C  0.65079317  0.13865511  0.56888387     0.13400
C776        C  0.63372328  0.13955950  0.58591481    -0.22700
C777        C  0.57979855  0.15016656  0.55058670    -0.05700
H778        H  0.61638504  0.14796348  0.52254668     0.15000
C779        C  0.67524802  0.13466644  0.57608659    -0.15900
H780        H  0.63825997  0.13692058  0.60370452     0.09300
H781        H  0.53424527  0.17918925  0.62639755     0.07200
H782        H  0.56055977  0.19477893  0.62373930     0.08400
H783        H  0.55419175  0.18067636  0.65023490     0.07400
H784        H  0.61459287  0.09627186  0.59904895     0.02300
H785        H  0.59367488  0.09690537  0.57622951     0.02800
H786        H  0.58795759  0.08110528  0.60201361     0.06300
H787        H  0.57786874  0.15236873  0.53180863     0.05200
H788        H  0.57311753  0.16580534  0.55906797    -0.00500
H789        H  0.56930036  0.13522435  0.55590809     0.01000
H790        H  0.67698358  0.13411911  0.59500822     0.04600
H791        H  0.68628916  0.14875323  0.56963785     0.06600
H792        H  0.68140950  0.11802083  0.56931742     0.07400
C793        C  0.41050487  0.88443536  0.62707835    -0.22200
C794        C  0.40861878  0.86630061  0.61149810     0.09800
C795        C  0.42389175  0.84768122  0.61297390     0.10200
C796        C  0.44103924  0.84783706  0.62969348    -0.17100
C797        C  0.44368086  0.86633088  0.64486746    -0.27500
C798        C  0.42791505  0.88482045  0.64370569     0.18500
C799        C  0.39210112  0.86801597  0.59234036     0.12500
C800        C  0.42227583  0.82769970  0.59671752    -0.11900
H801        H  0.45286312  0.83355439  0.63046950     0.12800
C802        C  0.42959868  0.90533652  0.65926704    -0.22700
H803        H  0.39877301  0.89875088  0.62564937     0.08400
C804        C  0.36839648  0.86433344  0.59528779     0.04700
C805        C  0.35392732  0.86514636  0.57610925    -0.20000
C806        C  0.36263488  0.86937100  0.55400417    -0.12200
C807        C  0.38653554  0.87312908  0.55123211     0.13400
C808        C  0.40079120  0.87269432  0.57049443    -0.22700
C809        C  0.35845391  0.85922984  0.61854635    -0.05700
H810        H  0.33570836  0.86229093  0.57841898     0.15000
C811        C  0.39739580  0.87775029  0.52823053    -0.15900
H812        H  0.41903244  0.87566616  0.56851246     0.09300
H813        H  0.42791516  0.89988588  0.67739413     0.07200
H814        H  0.41584153  0.91799895  0.65582210     0.08400
H815        H  0.44628798  0.91410156  0.65662089     0.07400
H816        H  0.42537643  0.83347654  0.57889044     0.02300
H817        H  0.40497089  0.81987625  0.59791866     0.02800
H818        H  0.43514579  0.81428873  0.60068410     0.06300
H819        H  0.33962569  0.85649139  0.61777479     0.05200
H820        H  0.36176617  0.87376650  0.63030656    -0.00500
H821        H  0.36644298  0.84350975  0.62559269     0.01000
H822        H  0.41615669  0.88066680  0.52961213     0.04600
H823        H  0.38976529  0.89331729  0.52048392     0.06600
H824        H  0.39485445  0.86281621  0.51676520     0.07400
C825        C  0.61643824  0.87251288  0.58702273    -0.22200
C826        C  0.61036656  0.85024592  0.59346767     0.09800
C827        C  0.61948954  0.83143163  0.58133179     0.10200
C828        C  0.63436836  0.83543004  0.56279411    -0.17100
C829        C  0.64037916  0.85776855  0.55630457    -0.27500
C830        C  0.63119715  0.87659576  0.56855175     0.18500
C831        C  0.59254420  0.84760220  0.61138030     0.12500
C832        C  0.61367966  0.80723120  0.58802669    -0.11900
H833        H  0.64135350  0.82107904  0.55331182     0.12800
C834        C  0.63533740  0.90124866  0.56204737    -0.22700
H835        H  0.60888763  0.88690976  0.59599949     0.08400
C836        C  0.59665005  0.85350580  0.63441502     0.04700
C837        C  0.57816109  0.85451857  0.64983278    -0.20000
C838        C  0.55556355  0.85014335  0.64268298    -0.12200
C839        C  0.55171337  0.84331104  0.61964663     0.13400
C840        C  0.57030321  0.84205826  0.60442362    -0.22700
C841        C  0.62047201  0.85908251  0.64261848    -0.05700
H842        H  0.58133202  0.85952526  0.66740331     0.15000
C843        C  0.52811429  0.83826144  0.61042495    -0.15900
H844        H  0.56733398  0.83783782  0.58661133     0.09300
H845        H  0.64408818  0.91019431  0.57633778     0.07200
H846        H  0.61864009  0.90977718  0.55885319     0.08400
H847        H  0.64575700  0.90340257  0.54637750     0.07400
H848        H  0.59500802  0.80420361  0.58615417     0.02300
H849        H  0.61868928  0.80424109  0.60609987     0.02800
H850        H  0.62282381  0.79457735  0.57714292     0.06300
H851        H  0.62077884  0.86264479  0.66129008     0.05200
H852        H  0.62709617  0.87446102  0.63364754    -0.00500
H853        H  0.63204400  0.84440153  0.63915561     0.01000
H854        H  0.52860443  0.83327445  0.59208182     0.04600
H855        H  0.51713940  0.85371784  0.61181824     0.06600
H856        H  0.52030118  0.82384428  0.62004699     0.07400
C857        C  0.48568461  0.97081216  0.70991471    -0.22200
C858        C  0.50525802  0.98277575  0.70282392     0.09800
C859        C  0.52518543  0.97055962  0.69671067     0.10200
C860        C  0.52463635  0.94655135  0.69658554    -0.17100
C861        C  0.50457375  0.93445996  0.70223001    -0.27500
C862        C  0.48483659  0.94681460  0.70929473     0.18500
C863        C  0.50341589  0.00777395  0.69887679     0.12500
C864        C  0.54667831  0.98285676  0.68937636    -0.11900
H865        H  0.53972876  0.93714495  0.69118809     0.12800
C866        C  0.46197912  0.93585385  0.71448104    -0.22700
H867        H  0.47039653  0.98034976  0.71445564     0.08400
C868        C  0.49263275  0.01627092  0.67905371     0.04700
C869        C  0.49146206  0.03995534  0.67549564    -0.20000
C870        C  0.50092480  0.05556728  0.69119375    -0.12200
C871        C  0.51164185  0.04691756  0.71123250     0.13400
C872        C  0.51270087  0.02310399  0.71476910    -0.22700
C873        C  0.48270032  0.00028815  0.66139176    -0.05700
H874        H  0.48330064  0.04625648  0.66010176     0.15000
C875        C  0.52206245  0.06243879  0.72898087    -0.15900
H876        H  0.52094184  0.01634442  0.72994359     0.09300
H877        H  0.44875232  0.94313995  0.70295074     0.07200
H878        H  0.45706149  0.93960501  0.73246490     0.08400
H879        H  0.46159665  0.91714390  0.71203452     0.07400
H880        H  0.55286434  0.99389335  0.70353953     0.02300
H881        H  0.54308377  0.99363698  0.67415976     0.02800
H882        H  0.56060400  0.97070716  0.68483136     0.06300
H883        H  0.47541699  0.00973676  0.64661431     0.05200
H884        H  0.46874903  0.98992663  0.66913614    -0.00500
H885        H  0.49629020  0.98869482  0.65483655     0.01000
H886        H  0.50876896  0.07414964  0.73591635     0.04600
H887        H  0.53626213  0.07249101  0.72126891     0.06600
H888        H  0.52927019  0.05264465  0.74357416     0.07400
C889        C  0.13237198  0.63587602  0.39557748    -0.22200
C890        C  0.13313465  0.61241180  0.40036063     0.09800
C891        C  0.13336266  0.60487624  0.42324989     0.10200
C892        C  0.13267485  0.62100115  0.44094272    -0.17100
C893        C  0.13188155  0.64460564  0.43643015    -0.27500
C894        C  0.13139990  0.65216663  0.41329593     0.18500
C895        C  0.13282050  0.59565583  0.38139561     0.12500
C896        C  0.13448669  0.57974863  0.42900137    -0.11900
H897        H  0.13309040  0.61506501  0.45851571     0.12800
C898        C  0.12881700  0.67688034  0.40633833    -0.22700
H899        H  0.13190417  0.64147449  0.37788813     0.08400
C900        C  0.11209333  0.58560014  0.37421097     0.04700
C901        C  0.11275698  0.56708593  0.35902284    -0.20000
C902        C  0.13360267  0.55874793  0.35039375    -0.12200
C903        C  0.15440169  0.56930346  0.35705794     0.13400
C904        C  0.15368336  0.58776322  0.37244404    -0.22700
C905        C  0.08930535  0.59429733  0.38273451    -0.05700
H906        H  0.09685822  0.55904081  0.35385641     0.15000
C907        C  0.17765073  0.56086826  0.34952835    -0.15900
H908        H  0.16956039  0.59542027  0.37827342     0.09300
H909        H  0.11417631  0.67852467  0.39433676     0.07200
H910        H  0.14464927  0.68268060  0.39748111     0.08400
H911        H  0.12514883  0.68855429  0.42074458     0.07400
H912        H  0.15031936  0.57219980  0.42160868     0.02300
H913        H  0.11935165  0.57073953  0.42188250     0.02800
H914        H  0.13471246  0.57680240  0.44777719     0.06300
H915        H  0.07477964  0.58450240  0.37533284     0.05200
H916        H  0.08726184  0.61253333  0.37782968    -0.00500
H917        H  0.08833240  0.59280163  0.40164265     0.01000
H918        H  0.18650732  0.57450970  0.33966946     0.04600
H919        H  0.17694455  0.54526783  0.33883227     0.06600
H920        H  0.18807900  0.55666849  0.36483662     0.07400
C921        C  0.21921017  0.75475267  0.49028676    -0.22200
C922        C  0.21213966  0.77590692  0.49898820     0.09800
C923        C  0.18924839  0.77897883  0.50601227     0.10200
C924        C  0.17390971  0.76054546  0.50455113    -0.17100
C925        C  0.18086896  0.73912998  0.49597655    -0.27500
C926        C  0.20391028  0.73630644  0.48855329     0.18500
C927        C  0.22909251  0.79466003  0.50030776     0.12500
C928        C  0.18110241  0.80169120  0.51510376    -0.11900
H929        H  0.15635532  0.76292819  0.51019970     0.12800
C930        C  0.21261355  0.71421892  0.47840463    -0.22700
H931        H  0.23684586  0.75275032  0.48474678     0.08400
C932        C  0.24520376  0.79576736  0.51818461     0.04700
C933        C  0.26182644  0.81309824  0.51795529    -0.20000
C934        C  0.26267736  0.82943429  0.50029272    -0.12200
C935        C  0.24596774  0.82861698  0.48269935     0.13400
C936        C  0.22945634  0.81113234  0.48293306    -0.22700
C937        C  0.24483072  0.77863744  0.53745337    -0.05700
H938        H  0.27436374  0.81375107  0.53160098     0.15000
C939        C  0.24567820  0.84554583  0.46324496    -0.15900
H940        H  0.21692280  0.81005636  0.46932521     0.09300
H941        H  0.21161178  0.70031865  0.49130656     0.07200
H942        H  0.23079779  0.71558370  0.47288287     0.08400
H943        H  0.20232323  0.70965719  0.46310460     0.07400
H944        H  0.18306180  0.81501615  0.50170160     0.02300
H945        H  0.19137524  0.80658989  0.53030621     0.02800
H946        H  0.16277291  0.80109774  0.52025484     0.06300
H947        H  0.25834944  0.78223497  0.55031345     0.05200
H948        H  0.24772106  0.76115886  0.53059955    -0.00500
H949        H  0.22794959  0.77921218  0.54625889     0.01000
H950        H  0.23175453  0.84182060  0.45085946     0.04600
H951        H  0.26219617  0.84487516  0.45378219     0.06600
H952        H  0.24276492  0.86306359  0.46999192     0.07400
C953        C  0.85561014  0.64710829  0.39732103    -0.22200
C954        C  0.85339076  0.62356238  0.40135575     0.09800
C955        C  0.85091783  0.61549855  0.42397348     0.10200
C956        C  0.85133556  0.63112114  0.44212951    -0.17100
C957        C  0.85469582  0.65462466  0.43835242    -0.27500
C958        C  0.85593428  0.66285088  0.41554913     0.18500
C959        C  0.85559733  0.60720434  0.38212617     0.12500
C960        C  0.84901930  0.59025836  0.42906875    -0.11900
H961        H  0.85036031  0.62470609  0.45951565     0.12800
C962        C  0.85707232  0.68793946  0.40971964    -0.22700
H963        H  0.85727287  0.65320784  0.37987017     0.08400
C964        C  0.83627600  0.59694431  0.37195159     0.04700
C965        C  0.83940034  0.57851424  0.35683536    -0.20000
C966        C  0.86139754  0.57018666  0.35161241    -0.12200
C967        C  0.88081822  0.58092385  0.36150453     0.13400
C968        C  0.87759150  0.59959507  0.37625596    -0.22700
C969        C  0.81241899  0.60530609  0.37723480    -0.05700
H970        H  0.82455413  0.57031645  0.34929971     0.15000
C971        C  0.90504628  0.57233270  0.35859160    -0.15900
H972        H  0.89233515  0.60737109  0.38443819     0.09300
H973        H  0.84328343  0.69213996  0.39734306     0.07200
H974        H  0.87390589  0.69191956  0.40175860     0.08400
H975        H  0.85444363  0.69918488  0.42474374     0.07400
H976        H  0.86447245  0.58122870  0.42260371     0.02300
H977        H  0.83360990  0.58299998  0.42069818     0.02800
H978        H  0.84758295  0.58690016  0.44772736     0.06300
H979        H  0.79923726  0.59542436  0.36775093     0.05200
H980        H  0.81088317  0.62357390  0.37227326    -0.00500
H981        H  0.80873186  0.60363378  0.39579095     0.01000
H982        H  0.91550799  0.58556506  0.34979971     0.04600
H983        H  0.90639805  0.55617758  0.34887438     0.06600
H984        H  0.91260097  0.56900641  0.37570478     0.07400
C985        C  0.77519271  0.81523202  0.50599534    -0.22200
C986        C  0.77075602  0.79238979  0.50043689     0.09800
C987        C  0.74828611  0.78559700  0.49479642     0.10200
C988        C  0.73058983  0.80184616  0.49528056    -0.17100
C989        C  0.73483825  0.82486978  0.50098029    -0.27500
C990        C  0.75764931  0.83166069  0.50612766     0.18500
C991        C  0.78990515  0.77579612  0.50096809     0.12500
C992        C  0.74307635  0.76129389  0.48791175    -0.11900
H993        H  0.71333598  0.79648299  0.49102604     0.12800
C994        C  0.76393128  0.85606611  0.51164266    -0.22700
H995        H  0.79258410  0.82020234  0.51022161     0.08400
C996        C  0.80634039  0.77476983  0.48327293     0.04700
C997        C  0.82369663  0.75820509  0.48425419    -0.20000
C998        C  0.82495665  0.74253242  0.50246865    -0.12200
C999        C  0.80902776  0.74439688  0.52079398     0.13400
C1000       C  0.79167282  0.76097620  0.51968682    -0.22700
C1001       C  0.80522493  0.79076071  0.46308822    -0.05700
H1002       H  0.83597451  0.75712423  0.47034394     0.15000
C1003       C  0.81026637  0.72938609  0.54174452    -0.15900
H1004       H  0.77920497  0.76231386  0.53344044     0.09300
H1005       H  0.75963038  0.86731819  0.49696018     0.07200
H1006       H  0.78256202  0.85803070  0.51499607     0.08400
H1007       H  0.75463100  0.86178113  0.52722304     0.07400
H1008       H  0.74719637  0.74948026  0.50218477     0.02300
H1009       H  0.75348943  0.75660155  0.47267956     0.02800
H1010       H  0.72470892  0.75897989  0.48351919     0.06300
H1011       H  0.81927687  0.78746946  0.45065248     0.05200
H1012       H  0.80676491  0.80874455  0.46898814    -0.00500
H1013       H  0.78863993  0.78851076  0.45408879     0.01000
H1014       H  0.79735411  0.73438627  0.55483341     0.04600
H1015       H  0.82747214  0.73090133  0.54968947     0.06600
H1016       H  0.80683089  0.71131342  0.53707382     0.07400
C1017       C  0.98047610  0.68319766  0.50379702    -0.22200
C1018       C  0.99051540  0.70389711  0.49710713     0.09800
C1019       C  0.97650885  0.72270088  0.49143009     0.10200
C1020       C  0.95255551  0.72013171  0.49196925    -0.17100
C1021       C  0.94248527  0.69921167  0.49825805    -0.27500
C1022       C  0.95665345  0.68076582  0.50507955     0.18500
C1023       C  0.01580496  0.70527274  0.49633878     0.12500
C1024       C  0.98689207  0.74540423  0.48499382    -0.11900
H1025       H  0.94168105  0.73433279  0.48708330     0.12800
C1026       C  0.94745347  0.65866457  0.51485199    -0.22700
H1027       H  0.99138047  0.66895334  0.50857073     0.08400
C1028       C  0.02885141  0.70671737  0.51655475     0.04700
C1029       C  0.05280820  0.70557111  0.51513952    -0.20000
C1030       C  0.06401214  0.70298670  0.49396662    -0.12200
C1031       C  0.05086712  0.70225045  0.47362590     0.13400
C1032       C  0.02687865  0.70342096  0.47512263    -0.22700
C1033       C  0.01746911  0.70923668  0.53960559    -0.05700
H1034       H  0.06282568  0.70618249  0.53072066     0.15000
C1035       C  0.06179583  0.69902942  0.45043488    -0.15900
H1036       H  0.01661416  0.70215915  0.45972980     0.09300
H1037       H  0.95569837  0.65531359  0.53163401     0.07200
H1038       H  0.95151823  0.64432260  0.50306394     0.08400
H1039       H  0.92876606  0.65890877  0.51811258     0.07400
H1040       H  0.99764088  0.74345943  0.46941100     0.02300
H1041       H  0.99771756  0.75175247  0.49925717     0.02800
H1042       H  0.97353512  0.75844557  0.48142708     0.06300
H1043       H  0.03023002  0.71064111  0.55360872     0.05200
H1044       H  0.00649087  0.69413579  0.54317473    -0.00500
H1045       H  0.00673169  0.72491689  0.53978431     0.01000
H1046       H  0.07183096  0.68288456  0.45015145     0.04600
H1047       H  0.07321892  0.71372143  0.44654550     0.06600
H1048       H  0.04879983  0.69801831  0.43661479     0.07400
C1049       C  0.86274470  0.39898020  0.63384077    -0.22200
C1050       C  0.85525229  0.40272910  0.61138745     0.09800
C1051       C  0.84678177  0.42441549  0.60512937     0.10200
C1052       C  0.84707233  0.44222873  0.62117414    -0.17100
C1053       C  0.85575666  0.43897747  0.64335301    -0.27500
C1054       C  0.86277757  0.41672688  0.65007734     0.18500
C1055       C  0.85787336  0.38434563  0.59413040     0.12500
C1056       C  0.83835543  0.42903552  0.58120783    -0.11900
H1057       H  0.84156775  0.45913634  0.61591297     0.12800
C1058       C  0.86995150  0.41079606  0.67411954    -0.22700
H1059       H  0.86883321  0.38212992  0.63864917     0.08400
C1060       C  0.87925698  0.38016813  0.58361751     0.04700
C1061       C  0.88062688  0.36436818  0.56562931    -0.20000
C1062       C  0.86104398  0.35297217  0.55759180    -0.12200
C1063       C  0.83983384  0.35624069  0.56897376     0.13400
C1064       C  0.83850445  0.37208319  0.58700973    -0.22700
C1065       C  0.90041227  0.39318418  0.59063602    -0.05700
H1066       H  0.89689276  0.36184570  0.55696927     0.15000
C1067       C  0.81844670  0.34309111  0.56298597    -0.15900
H1068       H  0.82218310  0.37514428  0.59537841     0.09300
H1069       H  0.88838553  0.40608880  0.67428201     0.07200
H1070       H  0.85975634  0.39594131  0.68024106     0.08400
H1071       H  0.86693453  0.42477975  0.68652316     0.07400
H1072       H  0.82341011  0.41792002  0.57742049     0.02300
H1073       H  0.85222894  0.42547561  0.56865708     0.02800
H1074       H  0.83291153  0.44710957  0.57901346     0.06300
H1075       H  0.91560895  0.38816020  0.58030360     0.05200
H1076       H  0.90430930  0.38973051  0.60889120    -0.00500
H1077       H  0.89757855  0.41181866  0.58825279     0.01000
H1078       H  0.81164122  0.33461517  0.57860313     0.04600
H1079       H  0.82145847  0.32943214  0.55019746     0.06600
H1080       H  0.80526566  0.35503007  0.55631624     0.07400
C1081       C  0.85750389  0.59456839  0.62399718    -0.22200
C1082       C  0.86979284  0.59234785  0.60348007     0.09800
C1083       C  0.88150417  0.57179775  0.59867096     0.10200
C1084       C  0.88027237  0.55368758  0.61434608    -0.17100
C1085       C  0.86793034  0.55575148  0.63490892    -0.27500
C1086       C  0.85626318  0.57646269  0.63977762     0.18500
C1087       C  0.86931163  0.61125254  0.58663774     0.12500
C1088       C  0.89541614  0.56905624  0.57706349    -0.11900
H1089       H  0.88928247  0.53788051  0.61066854     0.12800
C1090       C  0.84148309  0.57984204  0.66071197    -0.22700
H1091       H  0.84834748  0.61034187  0.62744267     0.08400
C1092       C  0.85312982  0.61146371  0.56880683     0.04700
C1093       C  0.85436138  0.62859151  0.55209907    -0.20000
C1094       C  0.87140631  0.64559937  0.55266923    -0.12200
C1095       C  0.88750785  0.64555496  0.57088872     0.13400
C1096       C  0.88598353  0.62846759  0.58777505    -0.22700
C1097       C  0.83465025  0.59349236  0.56731904    -0.05700
H1098       H  0.84194514  0.62858118  0.53832611     0.15000
C1099       C  0.90725638  0.66212235  0.57276645    -0.15900
H1100       H  0.89844890  0.62805344  0.60150863     0.09300
H1101       H  0.82389714  0.58469114  0.65534332     0.07200
H1102       H  0.84869370  0.59383386  0.67134758     0.08400
H1103       H  0.83985368  0.56433009  0.67143049     0.07400
H1104       H  0.90910577  0.58224857  0.57651007     0.02300
H1105       H  0.88426345  0.57104888  0.56184481     0.02800
H1106       H  0.90367670  0.55196312  0.57609362     0.06300
H1107       H  0.82328647  0.59628063  0.55235577     0.05200
H1108       H  0.82392821  0.59395927  0.58303772    -0.00500
H1109       H  0.84245723  0.57626752  0.56560785     0.01000
H1110       H  0.90523830  0.67252938  0.58854950     0.04600
H1111       H  0.90906018  0.67380041  0.55804763     0.06600
H1112       H  0.92356949  0.65240401  0.57391043     0.07400
C1113       C  0.13359972  0.40697791  0.60890780    -0.22200
C1114       C  0.14571475  0.41187029  0.58878510     0.09800
C1115       C  0.15781167  0.43265858  0.58692397     0.10200
C1116       C  0.15652553  0.44867074  0.60481780    -0.17100
C1117       C  0.14333110  0.44445772  0.62460078    -0.27500
C1118       C  0.13229508  0.42288089  0.62691671     0.18500
C1119       C  0.14403990  0.39568649  0.56928746     0.12500
C1120       C  0.17193315  0.43796958  0.56596210    -0.11900
H1121       H  0.16539452  0.46486194  0.60298734     0.12800
C1122       C  0.11874257  0.41642863  0.64795725    -0.22700
H1123       H  0.12452744  0.39082543  0.61020657     0.08400
C1124       C  0.15647508  0.37504310  0.56867571     0.04700
C1125       C  0.15328655  0.35986585  0.55029839    -0.20000
C1126       C  0.13783083  0.36477006  0.53247865    -0.12200
C1127       C  0.12570358  0.38585279  0.53299192     0.13400
C1128       C  0.12899002  0.40092484  0.55142271    -0.22700
C1129       C  0.17317252  0.36911420  0.58736324    -0.05700
H1130       H  0.16274286  0.34392538  0.55006459     0.15000
C1131       C  0.10926892  0.39281026  0.51437184    -0.15900
H1132       H  0.11953306  0.41689264  0.55209840     0.09300
H1133       H  0.12987303  0.41744224  0.66331051     0.07200
H1134       H  0.11201679  0.39867317  0.64690089     0.08400
H1135       H  0.10379738  0.42800508  0.64995278     0.07400
H1136       H  0.16078583  0.43848480  0.55061145     0.02300
H1137       H  0.18520735  0.42455835  0.56359382     0.02800
H1138       H  0.18072026  0.45476602  0.56742962     0.06300
H1139       H  0.18180547  0.35249531  0.58408728     0.05200
H1140       H  0.16404459  0.36786962  0.60400761    -0.00500
H1141       H  0.18654364  0.38259047  0.58850741     0.01000
H1142       H  0.10199190  0.41011027  0.51743154     0.04600
H1143       H  0.09469984  0.38061386  0.51365999     0.06600
H1144       H  0.11831260  0.39324527  0.49763125     0.07400
C1145       C  0.11991697  0.58972038  0.61108039    -0.22200
C1146       C  0.14172852  0.59843812  0.60609329     0.09800
C1147       C  0.16111274  0.58915724  0.61700185     0.10200
C1148       C  0.15842016  0.57020987  0.63151430    -0.17100
C1149       C  0.13673347  0.56057594  0.63556549    -0.27500
C1150       C  0.11709304  0.57079373  0.62559796     0.18500
C1151       C  0.14410702  0.61508031  0.58715648     0.12500
C1152       C  0.18464201  0.59893349  0.61282212    -0.11900
H1153       H  0.17338327  0.56252796  0.63933662     0.12800
C1154       C  0.09310745  0.56149137  0.62839804    -0.22700
H1155       H  0.10509931  0.59694336  0.60255191     0.08400
C1156       C  0.14714524  0.60742446  0.56446357     0.04700
C1157       C  0.14826576  0.62344683  0.54668459    -0.34400
C1158       C  0.14612622  0.64699528  0.55096521    -0.12200
C1159       C  0.14438309  0.65472366  0.57395596     0.13400
C1160       C  0.14301188  0.63856977  0.59173315    -0.22700
C1161       C  0.14851195  0.58225822  0.55894282    -0.05700
H1162       H  0.14968907  0.61740616  0.52919006     0.15000
C1163       C  0.14451646  0.67965813  0.58059725    -0.15900
H1164       H  0.14117317  0.64432022  0.60928513     0.09300
H1165       H  0.08594923  0.55732507  0.61130268     0.07200
H1166       H  0.08208862  0.57466141  0.63658234     0.08400
H1167       H  0.09210695  0.54574002  0.63879056     0.07400
H1168       H  0.18491152  0.61722503  0.61796181     0.02300
H1169       H  0.18913274  0.59758437  0.59440059     0.02800
H1170       H  0.19794947  0.58976756  0.62281030     0.06300
H1171       H  0.15081971  0.57921339  0.54031300     0.05200
H1172       H  0.13247414  0.57359742  0.56443106    -0.00500
H1173       H  0.16325660  0.57443966  0.56799360     0.01000
H1174       H  0.12760699  0.68441113  0.58794743     0.04600
H1175       H  0.14861894  0.69126327  0.56620846     0.06600
H1176       H  0.15792956  0.68259125  0.59372959     0.07400
C1177       C  0.97689404  0.51739512  0.70011375    -0.22200
C1178       C  0.98898992  0.49956098  0.68957084     0.09800
C1179       C  0.97691726  0.48170289  0.67878996     0.10200
C1180       C  0.95293955  0.48241553  0.67820187    -0.17100
C1181       C  0.94063949  0.50063633  0.68800557    -0.27500
C1182       C  0.95283208  0.51839849  0.69926014     0.18500
C1183       C  0.01427427  0.50083287  0.68799539     0.12500
C1184       C  0.98939647  0.46218302  0.66740194    -0.11900
H1185       H  0.94371102  0.46875492  0.66968037     0.12800
C1186       C  0.94160000  0.53937148  0.70930311    -0.22700
H1187       H  0.98636564  0.53117713  0.70815432     0.08400
C1188       C  0.02494528  0.51239453  0.66967252     0.04700
C1189       C  0.04879107  0.51109308  0.66715832    -0.20000
C1190       C  0.06230156  0.49874320  0.68270118    -0.12200
C1191       C  0.05158255  0.48747576  0.70139063     0.13400
C1192       C  0.02765239  0.48883856  0.70383467    -0.22700
C1193       C  0.01110452  0.52590596  0.65263907    -0.05700
H1194       H  0.05696844  0.51986213  0.65297100     0.15000
C1195       C  0.06436447  0.47290213  0.71839916    -0.15900
H1196       H  0.01926659  0.47981356  0.71774629     0.09300
H1197       H  0.94925254  0.55491722  0.70145607     0.07200
H1198       H  0.94469274  0.53986425  0.72804066     0.08400
H1199       H  0.92296172  0.54036213  0.70630422     0.07400
H1200       H  0.00001252  0.45302728  0.68020323     0.02300
H1201       H  0.00066162  0.46884753  0.65358192     0.02800
H1202       H  0.97734278  0.44966535  0.65969179     0.06300
H1203       H  0.02215497  0.53396053  0.63938804     0.05200
H1204       H  0.00160072  0.53971201  0.66162494    -0.00500
H1205       H  0.99869486  0.51448988  0.64388562     0.01000
H1206       H  0.06284511  0.48060083  0.73571316     0.04600
H1207       H  0.08273211  0.47071804  0.71429252     0.06600
H1208       H  0.05671102  0.45550279  0.71879427     0.07400
C1209       C  0.51176030  0.76711954  0.18763728    -0.22200
C1210       C  0.49871517  0.76398438  0.20754081     0.09800
C1211       C  0.48639491  0.74348085  0.21065246     0.10200
C1212       C  0.48737394  0.72648018  0.19372718    -0.17100
C1213       C  0.50030036  0.72945920  0.17356626    -0.27500
C1214       C  0.51273978  0.75016900  0.17055191     0.18500
C1215       C  0.49823960  0.78230600  0.22509098     0.12500
C1216       C  0.47218455  0.73957988  0.23187328    -0.11900
H1217       H  0.47782794  0.71077446  0.19629034     0.12800
C1218       C  0.52715744  0.75469503  0.14958513    -0.22700
H1219       H  0.52121655  0.78294506  0.18551084     0.08400
C1220       C  0.51444108  0.78295448  0.24291845     0.04700
C1221       C  0.51262113  0.79988410  0.25985442    -0.20000
C1222       C  0.49498609  0.81625845  0.25942315    -0.12200
C1223       C  0.47855109  0.81540702  0.24158050     0.13400
C1224       C  0.48065477  0.79861321  0.22447550    -0.22700
C1225       C  0.53360705  0.76573328  0.24407692    -0.05700
H1226       H  0.52523785  0.80048344  0.27342628     0.15000
C1227       C  0.45793681  0.83091551  0.24050326    -0.15900
H1228       H  0.46804128  0.79778062  0.21088243     0.09300
H1229       H  0.53577988  0.77162201  0.15040725     0.07200
H1230       H  0.51618755  0.75462555  0.13408881     0.08400
H1231       H  0.54071110  0.74145186  0.14801767     0.07400
H1232       H  0.45870023  0.75291706  0.23315940     0.02300
H1233       H  0.48325446  0.74042437  0.24727099     0.02800
H1234       H  0.46364756  0.72259154  0.23166003     0.06300
H1235       H  0.54480601  0.76866978  0.25913912     0.05200
H1236       H  0.54434475  0.76695065  0.22840756    -0.00500
H1237       H  0.52642385  0.74819199  0.24538663     0.01000
H1238       H  0.45908878  0.84188153  0.22502699     0.04600
H1239       H  0.45593424  0.84197845  0.25572079     0.06600
H1240       H  0.44213786  0.82036098  0.23937863     0.07400
C1241       C  0.51424307  0.74566018  0.78688654    -0.22200
C1242       C  0.49746039  0.76271497  0.78856708     0.09800
C1243       C  0.48047077  0.76120886  0.80570683     0.10200
C1244       C  0.48095641  0.74285419  0.82117784    -0.17100
C1245       C  0.49802397  0.72596181  0.81984997    -0.27500
C1246       C  0.51456333  0.72706287  0.80206500     0.18500
C1247       C  0.49752714  0.78155912  0.77163445     0.12500
C1248       C  0.46206468  0.77915456  0.80785329    -0.11900
H1249       H  0.46817645  0.74190045  0.83463867     0.12800
C1250       C  0.53205765  0.70855272  0.79775086    -0.22700
H1251       H  0.52690301  0.74662860  0.77328709     0.08400
C1252       C  0.51281619  0.80015324  0.77338040     0.04700
C1253       C  0.51268156  0.81718006  0.75641679    -0.20000
C1254       C  0.49721341  0.81630634  0.73800619    -0.12200
C1255       C  0.48143925  0.79782806  0.73671444     0.13400
C1256       C  0.48203494  0.78061118  0.75343516    -0.22700
C1257       C  0.52898284  0.80216770  0.79333635    -0.05700
H1258       H  0.52461424  0.83132662  0.75765469     0.15000
C1259       C  0.46418921  0.79570491  0.71765523    -0.15900
H1260       H  0.47032856  0.76623274  0.75235493     0.09300
H1261       H  0.54955712  0.71553424  0.80035276     0.07200
H1262       H  0.53054841  0.70248507  0.77979907     0.08400
H1263       H  0.52978782  0.69336613  0.80879714     0.07400
H1264       H  0.45155589  0.77952931  0.79205079     0.02300
H1265       H  0.47004412  0.79620524  0.81047383     0.02800
H1266       H  0.45044563  0.77568736  0.82253551     0.06300
H1267       H  0.53950495  0.81797824  0.79232724     0.05200
H1268       H  0.54076766  0.78727216  0.79365295    -0.00500
H1269       H  0.51902546  0.80266235  0.80955862     0.01000
H1270       H  0.45383262  0.77981496  0.71917782     0.04600
H1271       H  0.47313173  0.79521292  0.70086559     0.06600
H1272       H  0.45211081  0.81036100  0.71821064     0.07400
C1273       C  0.48030651  0.69241971  0.97526286    -0.22200
C1274       C  0.49970088  0.70320710  0.98430692     0.09800
C1275       C  0.51613791  0.71280303  0.96937656     0.10200
C1276       C  0.51364002  0.70980629  0.94562290    -0.17100
C1277       C  0.49499201  0.69753433  0.93663551    -0.27500
C1278       C  0.47739855  0.69002372  0.95161209     0.18500
C1279       C  0.50313937  0.70219788  0.00939294     0.12500
C1280       C  0.53638191  0.72584676  0.97856264    -0.11900
H1281       H  0.52689886  0.71600481  0.93415877     0.12800
C1282       C  0.45518598  0.67972890  0.94337328    -0.22700
H1283       H  0.46746157  0.68551563  0.98679331     0.08400
C1284       C  0.48970906  0.71520452  0.02466281     0.04700
C1285       C  0.49098884  0.71074340  0.04824441    -0.20000
C1286       C  0.50518166  0.69332416  0.05692051    -0.12200
C1287       C  0.51966081  0.68120105  0.04151527     0.13400
C1288       C  0.51835856  0.68584249  0.01798904    -0.22700
C1289       C  0.47384187  0.73356886  0.01601227    -0.05700
H1290       H  0.48022615  0.72044477  0.05985682     0.15000
C1291       C  0.53624450  0.66304558  0.04937090    -0.15900
H1292       H  0.52862599  0.67597415  0.00603992     0.09300
H1293       H  0.44058626  0.68909965  0.95122027     0.07200
H1294       H  0.45422396  0.66149218  0.94859848     0.08400
H1295       H  0.45292221  0.68098374  0.92460130     0.07400
H1296       H  0.54702636  0.71452631  0.98945472     0.02300
H1297       H  0.53024396  0.74055022  0.98894357     0.02800
H1298       H  0.54737917  0.73260066  0.96456046     0.06300
H1299       H  0.46500322  0.74256019  0.03026778     0.05200
H1300       H  0.46055160  0.72594054  0.00480360    -0.00500
H1301       H  0.48379757  0.74640611  0.00610811     0.01000
H1302       H  0.52675821  0.64847344  0.05705850     0.04600
H1303       H  0.54834644  0.67040188  0.06203365     0.06600
H1304       H  0.54658646  0.65611974  0.03495843     0.07400
C1305       C  0.75457100  0.47947871  0.20886777    -0.22200
C1306       C  0.76984209  0.49794034  0.20775955     0.09800
C1307       C  0.76794467  0.51394326  0.18983710     0.10200
C1308       C  0.75032568  0.51149515  0.17374036    -0.17100
C1309       C  0.73442853  0.49344919  0.17512487    -0.27500
C1310       C  0.73685113  0.47696546  0.19281120     0.18500
C1311       C  0.78727409  0.50058879  0.22597192     0.12500
C1312       C  0.78425803  0.53384512  0.18797395    -0.11900
H1313       H  0.74871032  0.52410671  0.16022835     0.12800
C1314       C  0.72116095  0.45655919  0.19486185    -0.22700
H1315       H  0.75638588  0.46714482  0.22261194     0.08400
C1316       C  0.78154896  0.51002284  0.24743389     0.04700
C1317       C  0.79857864  0.51230008  0.26419689    -0.20000
C1318       C  0.82130942  0.50530627  0.26007828    -0.12200
C1319       C  0.82699410  0.49595343  0.23832649     0.13400
C1320       C  0.80984654  0.49373640  0.22161241    -0.22700
C1321       C  0.75747272  0.51785816  0.25256615    -0.05700
H1322       H  0.79400127  0.51948048  0.28066514     0.15000
C1323       C  0.85093318  0.48823200  0.23238077    -0.15900
H1324       H  0.81401060  0.48657034  0.20499919     0.09300
H1325       H  0.70341315  0.46228162  0.19860737     0.07200
H1326       H  0.72644921  0.44496668  0.20896092     0.08400
H1327       H  0.72150473  0.44654491  0.17870996     0.07400
H1328       H  0.80204156  0.52745314  0.18578328     0.02300
H1329       H  0.78326732  0.54441889  0.20373624     0.02800
H1330       H  0.78017959  0.54495954  0.17311600     0.06300
H1331       H  0.75595537  0.52513419  0.27006748     0.05200
H1332       H  0.74546057  0.50318398  0.25128291    -0.00500
H1333       H  0.75234007  0.53126005  0.24012761     0.01000
H1334       H  0.85209928  0.48173578  0.21454248     0.04600
H1335       H  0.85620566  0.47410804  0.24391764     0.06600
H1336       H  0.86303902  0.50280900  0.23393595     0.07400
C1337       C  0.62087443  0.57855888  0.16097096    -0.22200
C1338       C  0.61467603  0.58989588  0.14079740     0.09800
C1339       C  0.62644096  0.58501834  0.12025015     0.10200
C1340       C  0.64313428  0.56776494  0.12003058    -0.17100
C1341       C  0.64804039  0.55502163  0.13980610    -0.27500
C1342       C  0.63767136  0.56137115  0.16083920     0.18500
C1343       C  0.59459661  0.60538468  0.14100564     0.12500
C1344       C  0.62046853  0.59711775  0.09828786    -0.11900
H1345       H  0.65122642  0.56317738  0.10395735     0.12800
C1346       C  0.64396743  0.55067228  0.18343170    -0.22700
H1347       H  0.61216271  0.58280828  0.17684237     0.08400
C1348       C  0.57212847  0.59654841  0.14009263     0.04700
C1349       C  0.55359330  0.61165127  0.13804718    -0.20000
C1350       C  0.55689134  0.63547437  0.13720527    -0.12200
C1351       C  0.57950121  0.64431224  0.13886362     0.13400
C1352       C  0.59805640  0.62908581  0.14066561    -0.22700
C1353       C  0.56775848  0.57113349  0.14085880    -0.05700
H1354       H  0.53638525  0.60472879  0.13696888     0.15000
C1355       C  0.58443441  0.66961589  0.13812814    -0.15900
H1356       H  0.61541946  0.63563633  0.14139722     0.09300
H1357       H  0.62915309  0.54083828  0.19022665     0.07200
H1358       H  0.64842664  0.56435549  0.19584474     0.08400
H1359       H  0.65908415  0.53928511  0.18227508     0.07400
H1360       H  0.62341274  0.61578129  0.10020888     0.02300
H1361       H  0.60217964  0.59404509  0.09405666     0.02800
H1362       H  0.63107705  0.59098391  0.08371487     0.06300
H1363       H  0.54919862  0.56709243  0.13961473     0.05200
H1364       H  0.57416528  0.56400922  0.15724701    -0.00500
H1365       H  0.57670668  0.56261931  0.12638678     0.01000
H1366       H  0.60309169  0.67324582  0.13911715     0.04600
H1367       H  0.57610381  0.67823325  0.15289953     0.06600
H1368       H  0.57800407  0.67698548  0.12184884     0.07400
C1369       C  0.77067496  0.51806879  0.80124397    -0.22200
C1370       C  0.77397205  0.49951898  0.78641199     0.09800
C1371       C  0.76027324  0.47981182  0.78885344     0.10200
C1372       C  0.74326716  0.47920743  0.80586938    -0.17100
C1373       C  0.73949201  0.49786960  0.82065328    -0.27500
C1374       C  0.75363946  0.51756061  0.81836343     0.18500
C1375       C  0.79164092  0.50106408  0.76814945     0.12500
C1376       C  0.76340730  0.45951703  0.77324001    -0.11900
H1377       H  0.73267735  0.46405076  0.80740993     0.12800
C1378       C  0.75104905  0.53814228  0.83369690    -0.22700
H1379       H  0.78140523  0.53308358  0.79925365     0.08400
C1380       C  0.78702733  0.51181547  0.74707298     0.04700
C1381       C  0.80377368  0.51161770  0.72976373    -0.20000
C1382       C  0.82503162  0.50065479  0.73284886    -0.12200
C1383       C  0.82969167  0.49016118  0.75428288     0.13400
C1384       C  0.81293075  0.49061596  0.77161652    -0.22700
C1385       C  0.76420836  0.52302404  0.74269765    -0.05700
H1386       H  0.79999319  0.51975948  0.71353831     0.15000
C1387       C  0.85209568  0.47833134  0.75920456    -0.15900
H1388       H  0.81624844  0.48239439  0.78790981     0.09300
H1389       H  0.73375684  0.54573791  0.83153009     0.07200
H1390       H  0.76382741  0.55164297  0.82959847     0.08400
H1391       H  0.75363810  0.53306141  0.85181558     0.07400
H1392       H  0.78100668  0.45257150  0.77512203     0.02300
H1393       H  0.76072114  0.46480680  0.75519367     0.02800
H1394       H  0.75108288  0.44558468  0.77724329     0.06300
H1395       H  0.76330238  0.53050231  0.72524570     0.05200
H1396       H  0.76134926  0.53698191  0.75526966    -0.00500
H1397       H  0.75027952  0.51017718  0.74439169     0.01000
H1398       H  0.85274068  0.47157654  0.77696023     0.04600
H1399       H  0.86650313  0.49058831  0.75716358     0.06600
H1400       H  0.85439333  0.46359960  0.74742530     0.07400
C1401       C  0.63126983  0.58856391  0.86324586    -0.22200
C1402       C  0.60877669  0.58335983  0.85671253     0.09800
C1403       C  0.60348092  0.56122132  0.84871923     0.10200
C1404       C  0.62064520  0.54441507  0.84846485    -0.17100
C1405       C  0.64296349  0.54925021  0.85607734    -0.27500
C1406       C  0.64857018  0.57189160  0.86266658     0.18500
C1407       C  0.59086544  0.60116988  0.85892946     0.12500
C1408       C  0.57955433  0.55517465  0.84118010    -0.11900
H1409       H  0.61633585  0.52714510  0.84323466     0.12800
C1410       C  0.67259664  0.57933337  0.86849775    -0.22700
H1411       H  0.63534051  0.60578051  0.86883482     0.08400
C1412       C  0.58031131  0.60577613  0.88016877     0.04700
C1413       C  0.56282654  0.62220337  0.88135024    -0.20000
C1414       C  0.55554407  0.63408572  0.86176092    -0.12200
C1415       C  0.56695368  0.63014924  0.84063747     0.13400
C1416       C  0.58421380  0.61345099  0.83948248    -0.22700
C1417       C  0.58708522  0.59289933  0.90144163    -0.05700
H1418       H  0.55428595  0.62524338  0.89756975     0.15000
C1419       C  0.56222728  0.64364889  0.81917711    -0.15900
H1420       H  0.59274038  0.61011785  0.82330210     0.09300
H1421       H  0.67340344  0.58439613  0.88679122     0.07200
H1422       H  0.67735700  0.59429523  0.85777009     0.08400
H1423       H  0.68562765  0.56598072  0.86514297     0.07400
H1424       H  0.57450265  0.56613694  0.82652560     0.02300
H1425       H  0.56734987  0.55788981  0.85554129     0.02800
H1426       H  0.57827747  0.53702965  0.83566771     0.06300
H1427       H  0.57694164  0.59841802  0.91658071     0.05200
H1428       H  0.60547515  0.59593331  0.90520367    -0.00500
H1429       H  0.58420785  0.57429445  0.89886681     0.01000
H1430       H  0.57855164  0.65088038  0.81253761     0.04600
H1431       H  0.55060579  0.65831520  0.82191569     0.06600
H1432       H  0.55481413  0.63220427  0.80595436     0.07400
C1433       C  0.68162494  0.47119015  0.97341096    -0.22200
C1434       C  0.69717308  0.48568630  0.98447587     0.09800
C1435       C  0.71250710  0.49900809  0.97134338     0.10200
C1436       C  0.71098899  0.49854237  0.94731626    -0.17100
C1437       C  0.69455485  0.48494849  0.93620891    -0.27500
C1438       C  0.68035101  0.47032805  0.94945062     0.18500
C1439       C  0.69613576  0.48736065  0.00979651     0.12500
C1440       C  0.73025736  0.51384043  0.98271306    -0.11900
H1441       H  0.72209941  0.50947370  0.93720781     0.12800
C1442       C  0.66409034  0.45316477  0.93904828    -0.22700
H1443       H  0.67026106  0.46056657  0.98358479     0.08400
C1444       C  0.68209607  0.50378533  0.02058161     0.04700
C1445       C  0.68016533  0.50380378  0.04450152    -0.20000
C1446       C  0.69188622  0.48778486  0.05805849    -0.12200
C1447       C  0.70591634  0.47115137  0.04716072     0.13400
C1448       C  0.70797314  0.47135272  0.02314930    -0.22700
C1449       C  0.66886474  0.52111674  0.00682355    -0.05700
H1450       H  0.66938976  0.51651761  0.05270652     0.15000
C1451       C  0.71804985  0.45221999  0.05980150    -0.15900
H1452       H  0.71840204  0.45850498  0.01470545     0.09300
H1453       H  0.64617685  0.45772687  0.94358923     0.07200
H1454       H  0.66790987  0.43588693  0.94596971     0.08400
H1455       H  0.66556343  0.45187542  0.92019997     0.07400
H1456       H  0.74178269  0.50301788  0.99322964     0.02300
H1457       H  0.72184774  0.52666175  0.99393367     0.02800
H1458       H  0.74089071  0.52315673  0.96996259     0.06300
H1459       H  0.65861814  0.53265524  0.01796453     0.05200
H1460       H  0.65693176  0.51220986  0.99503569    -0.00500
H1461       H  0.68083147  0.53183891  0.99665869     0.01000
H1462       H  0.71278253  0.43544667  0.05258059     0.04600
H1463       H  0.71410690  0.45160345  0.07828544     0.06600
H1464       H  0.73685901  0.45416414  0.05758924     0.07400
C1465       C  0.23055354  0.52021674  0.18655475    -0.22200
C1466       C  0.22283805  0.49999695  0.19688552     0.09800
C1467       C  0.23164842  0.47873930  0.18949072     0.10200
C1468       C  0.24869219  0.47829646  0.17247100    -0.17100
C1469       C  0.25716787  0.49862548  0.16283864    -0.27500
C1470       C  0.24740371  0.51981683  0.16940531     0.18500
C1471       C  0.20584318  0.50157473  0.21571550     0.12500
C1472       C  0.22363404  0.45662484  0.20008185    -0.11900
H1473       H  0.25605997  0.46207056  0.16729406     0.12800
C1474       C  0.25370250  0.54223807  0.15826424    -0.22700
H1475       H  0.22331874  0.53645219  0.19190875     0.08400
C1476       C  0.21226461  0.50894917  0.23777119     0.04700
C1477       C  0.19574932  0.50966060  0.25522111    -0.20000
C1478       C  0.17284847  0.50339846  0.25116755    -0.12200
C1479       C  0.16636560  0.49637075  0.22885901     0.13400
C1480       C  0.18301201  0.49554122  0.21144837    -0.22700
C1481       C  0.23661908  0.51573274  0.24301306    -0.05700
H1482       H  0.20081648  0.51517425  0.27218683     0.15000
C1483       C  0.14220421  0.48919404  0.22326854    -0.15900
H1484       H  0.17826239  0.49004435  0.19438163     0.09300
H1485       H  0.26196813  0.55361394  0.17102887     0.07200
H1486       H  0.23792223  0.55067976  0.15185252     0.08400
H1487       H  0.26532478  0.54027359  0.14338395     0.07400
H1488       H  0.20500426  0.45433528  0.19705873     0.02300
H1489       H  0.22691768  0.45689871  0.21879104     0.02800
H1490       H  0.23267647  0.44162200  0.19266654     0.06300
H1491       H  0.23878951  0.52054384  0.26127462     0.05200
H1492       H  0.24163817  0.53068422  0.23242096    -0.00500
H1493       H  0.24830909  0.50121753  0.23926059     0.01000
H1494       H  0.13034302  0.50382897  0.22577457     0.04600
H1495       H  0.13697979  0.47470280  0.23441170     0.06600
H1496       H  0.14056452  0.48350001  0.20520521     0.07400
C1497       C  0.36297981  0.59232901  0.13178332    -0.22200
C1498       C  0.38660781  0.58837750  0.13008106     0.09800
C1499       C  0.39477348  0.56589735  0.12696428     0.10200
C1500       C  0.37910908  0.54776278  0.12581924    -0.17100
C1501       C  0.35538726  0.55156080  0.12725917    -0.27500
C1502       C  0.34717992  0.57419406  0.13054569     0.18500
C1503       C  0.40278061  0.60788096  0.13111282     0.12500
C1504       C  0.42002950  0.56114425  0.12426003    -0.11900
H1505       H  0.38542771  0.53050997  0.12321880     0.12800
C1506       C  0.32217301  0.57996908  0.13367791    -0.22700
H1507       H  0.35684977  0.60966918  0.13426945     0.08400
C1508       C  0.40807843  0.62079405  0.11143713     0.04700
C1509       C  0.42601466  0.63678171  0.11227718    -0.20000
C1510       C  0.43886441  0.64004347  0.13234023    -0.12200
C1511       C  0.43225550  0.62830756  0.15258205     0.13400
C1512       C  0.41453414  0.61209394  0.15155133    -0.22700
C1513       C  0.39546605  0.61692091  0.08931054    -0.05700
H1514       H  0.43079218  0.64587222  0.09681659     0.15000
C1515       C  0.44310408  0.63250154  0.17560935    -0.15900
H1516       H  0.41008057  0.60236299  0.16672845     0.09300
H1517       H  0.31639139  0.59094528  0.11929932     0.07200
H1518       H  0.31986901  0.58952899  0.14995171     0.08400
H1519       H  0.31088011  0.56481293  0.13469085     0.07400
H1520       H  0.42932758  0.56657556  0.13989328     0.02300
H1521       H  0.42684241  0.57071953  0.10929791     0.02800
H1522       H  0.42347830  0.54266666  0.12146431     0.06300
H1523       H  0.40196398  0.62819293  0.07543413     0.05200
H1524       H  0.37695156  0.62056392  0.09178758    -0.00500
H1525       H  0.39759668  0.59887901  0.08373851     0.01000
H1526       H  0.42946976  0.63571045  0.18851992     0.04600
H1527       H  0.45439167  0.64771045  0.17593861     0.06600
H1528       H  0.45301688  0.61717613  0.18087077     0.07400
C1529       C  0.24940896  0.48609172  0.77159333    -0.22200
C1530       C  0.22728549  0.49223769  0.77853562     0.09800
C1531       C  0.22264169  0.49617208  0.80190611     0.10200
C1532       C  0.24056239  0.49449336  0.81783969    -0.17100
C1533       C  0.26291137  0.48890444  0.81080530    -0.27500
C1534       C  0.26723415  0.48397056  0.78745042     0.18500
C1535       C  0.20921935  0.49377926  0.76091562     0.12500
C1536       C  0.19885599  0.50224564  0.80992177    -0.11900
H1537       H  0.23724708  0.49807907  0.83573895     0.12800
C1538       C  0.29004735  0.47548027  0.77868195    -0.22700
H1539       H  0.25269701  0.48255783  0.75364527     0.08400
C1540       C  0.20504946  0.51428541  0.74899188     0.04700
C1541       C  0.18881043  0.51447406  0.73133765    -0.20000
C1542       C  0.17678316  0.49455064  0.72508402    -0.12200
C1543       C  0.18085235  0.47401242  0.73743903     0.13400
C1544       C  0.19705527  0.47397522  0.75517287    -0.22700
C1545       C  0.21807235  0.53582554  0.75462895    -0.05700
H1546       H  0.18576545  0.53029472  0.72214905     0.15000
C1547       C  0.16864523  0.45193843  0.73199978    -0.15900
H1548       H  0.20057232  0.45829911  0.76444702     0.09300
H1549       H  0.29751051  0.48827204  0.76675358     0.07200
H1550       H  0.28748208  0.45915021  0.76929777     0.08400
H1551       H  0.30257435  0.47190274  0.79240756     0.07400
H1552       H  0.18677220  0.48830847  0.80533791     0.02300
H1553       H  0.19317642  0.51836012  0.80165346     0.02800
H1554       H  0.19815858  0.50470455  0.82876064     0.06300
H1555       H  0.21265959  0.55040442  0.74371445     0.05200
H1556       H  0.23669321  0.53300085  0.75188782    -0.00500
H1557       H  0.21506684  0.54062238  0.77276686     0.01000
H1558       H  0.17424458  0.43775237  0.74332990     0.04600
H1559       H  0.17235947  0.44675316  0.71408811     0.06600
H1560       H  0.14989778  0.45411948  0.73445506     0.07400
C1561       C  0.37678882  0.57835213  0.83533493    -0.22200
C1562       C  0.38387313  0.58669975  0.85665512     0.09800
C1563       C  0.37333074  0.57852297  0.87680961     0.10200
C1564       C  0.35649170  0.56146777  0.87521755    -0.17100
C1565       C  0.35047660  0.55195083  0.85399492    -0.27500
C1566       C  0.36015990  0.56108975  0.83369764     0.18500
C1567       C  0.40353463  0.60269321  0.85759775     0.12500
C1568       C  0.38075787  0.58685080  0.90004282    -0.11900
H1569       H  0.34911881  0.55446614  0.89075924     0.12800
C1570       C  0.35338384  0.55324510  0.81008376    -0.22700
H1571       H  0.38472341  0.58496476  0.81989280     0.08400
C1572       C  0.42618538  0.59470462  0.85506477     0.04700
C1573       C  0.44444586  0.61017232  0.85695399    -0.20000
C1574       C  0.44069323  0.63356901  0.86121531    -0.12200
C1575       C  0.41778204  0.64159122  0.86334628     0.13400
C1576       C  0.39953533  0.62596829  0.86157480    -0.22700
C1577       C  0.43109815  0.56975450  0.85071177    -0.05700
H1578       H  0.46181351  0.60381840  0.85523346     0.15000
C1579       C  0.41219109  0.66644424  0.86741190    -0.15900
H1580       H  0.38202150  0.63186742  0.86340399     0.09300
H1581       H  0.36820011  0.54475190  0.80167577     0.07200
H1582       H  0.34826864  0.56828993  0.79967593     0.08400
H1583       H  0.33860550  0.54135258  0.81015653     0.07400
H1584       H  0.37774024  0.60554251  0.90147597     0.02300
H1585       H  0.39928617  0.58328254  0.90248181     0.02800
H1586       H  0.37113849  0.57824981  0.91403944     0.06300
H1587       H  0.44978884  0.56629594  0.84966842     0.05200
H1588       H  0.42327975  0.56440253  0.83426158    -0.00500
H1589       H  0.42385604  0.55923398  0.86480759     0.01000
H1590       H  0.39340965  0.66946028  0.86819707     0.04600
H1591       H  0.41915619  0.67700222  0.85320314     0.06600
H1592       H  0.41954620  0.67214278  0.88396448     0.07400
C1593       C  0.28526567  0.48532438  0.96377797    -0.22200
C1594       C  0.30481468  0.49126893  0.97634705     0.09800
C1595       C  0.32538339  0.49647965  0.96478697     0.10200
C1596       C  0.32606790  0.49532509  0.94085789    -0.17100
C1597       C  0.30662328  0.48926864  0.92809893    -0.27500
C1598       C  0.28588551  0.48407587  0.93974273     0.18500
C1599       C  0.30385391  0.49120173  0.00166979     0.12500
C1600       C  0.34655885  0.50350570  0.97773025    -0.11900
H1601       H  0.34189020  0.49947768  0.93200431     0.12800
C1602       C  0.26443318  0.47614539  0.92778072    -0.22700
H1603       H  0.26956030  0.48114798  0.97282610     0.08400
C1604       C  0.29593530  0.51030007  0.01412652     0.04700
C1605       C  0.29729980  0.51011751  0.03812122    -0.20000
C1606       C  0.30652172  0.49130186  0.04985062    -0.12200
C1607       C  0.31350136  0.47171359  0.03731765     0.13400
C1608       C  0.31228171  0.47207271  0.01335838    -0.22700
C1609       C  0.28659007  0.53102630  0.00204058    -0.05700
H1610       H  0.29179189  0.52500934  0.04773106     0.15000
C1611       C  0.32159648  0.44986167  0.04843063    -0.15900
H1612       H  0.31805153  0.45732257  0.00366059     0.09300
H1613       H  0.25052120  0.48880080  0.93060501     0.07200
H1614       H  0.25897172  0.45943130  0.93501487     0.08400
H1615       H  0.26665887  0.47358585  0.90916610     0.07400
H1616       H  0.35194071  0.48951557  0.98937504     0.02300
H1617       H  0.34290237  0.51910361  0.98795979     0.02800
H1618       H  0.36109299  0.50734802  0.96602771     0.06300
H1619       H  0.28136359  0.54458074  0.01431599     0.05200
H1620       H  0.27134037  0.52612698  0.99182467    -0.00500
H1621       H  0.29986568  0.53824725  0.99045982     0.01000
H1622       H  0.31092672  0.43536613  0.04231045     0.04600
H1623       H  0.32020443  0.44998042  0.06731000     0.06600
H1624       H  0.33972064  0.44658953  0.04360333     0.07400
C1625       C  0.51382514  0.23941381  0.77750705    -0.22200
C1626       C  0.49959211  0.22049445  0.78119571     0.09800
C1627       C  0.48686194  0.21885963  0.80165423     0.10200
C1628       C  0.48791516  0.23677823  0.81763438    -0.17100
C1629       C  0.50174016  0.25617047  0.81382839    -0.27500
C1630       C  0.51524209  0.25723569  0.79356321     0.18500
C1631       C  0.49855207  0.20254245  0.76333425     0.12500
C1632       C  0.47238319  0.19810328  0.80670119    -0.11900
H1633       H  0.47783029  0.23558510  0.83318406     0.12800
C1634       C  0.53110149  0.27698171  0.78842325    -0.22700
H1635       H  0.52378673  0.24024875  0.76184235     0.08400
C1636       C  0.48166446  0.20286279  0.74613351     0.04700
C1637       C  0.48194562  0.18594745  0.72904658    -0.20000
C1638       C  0.49915709  0.16907166  0.72831859    -0.12200
C1639       C  0.51614582  0.16892790  0.74570137     0.13400
C1640       C  0.51547266  0.18560396  0.76301480    -0.22700
C1641       C  0.46379397  0.22146919  0.74543251    -0.05700
H1642       H  0.46899309  0.18634973  0.71580246     0.15000
C1643       C  0.53506105  0.15138187  0.74633042    -0.15900
H1644       H  0.52846268  0.18569327  0.77626640     0.09300
H1645       H  0.54023518  0.27469890  0.77188045     0.07200
H1646       H  0.54429971  0.27839075  0.80201493     0.08400
H1647       H  0.52115950  0.29313221  0.78728437     0.07400
H1648       H  0.48337529  0.18260123  0.80689158     0.02300
H1649       H  0.45901304  0.19604032  0.79340330     0.02800
H1650       H  0.46370078  0.19945704  0.82358881     0.06300
H1651       H  0.45194346  0.21929436  0.73074668     0.05200
H1652       H  0.47229253  0.23839013  0.74372783    -0.00500
H1653       H  0.45344528  0.22128620  0.76138219     0.01000
H1654       H  0.54619700  0.15322044  0.73100986     0.04600
H1655       H  0.52760827  0.13390655  0.74693526     0.06600
H1656       H  0.54614439  0.15347675  0.76161963     0.07400
C1657       C  0.41661232  0.37106276  0.82433499    -0.22200
C1658       C  0.40403208  0.37686906  0.84394905     0.09800
C1659       C  0.40804150  0.36512460  0.86461314     0.10200
C1660       C  0.42527771  0.34845098  0.86546025    -0.17100
C1661       C  0.43896745  0.34356588  0.84623774    -0.27500
C1662       C  0.43387442  0.35433596  0.82509229     0.18500
C1663       C  0.38803153  0.39650617  0.84308560     0.12500
C1664       C  0.39491528  0.37102764  0.88606001    -0.11900
H1665       H  0.42900197  0.34023723  0.88165738     0.12800
C1666       C  0.44592649  0.34858377  0.80297192    -0.22700
H1667       H  0.41319381  0.37994607  0.80841225     0.08400
C1668       C  0.39611213  0.41905145  0.84572914     0.04700
C1669       C  0.38035768  0.43709444  0.84679854    -0.20000
C1670       C  0.35660034  0.43330386  0.84495014    -0.12200
C1671       C  0.34866424  0.41068118  0.84074778     0.13400
C1672       C  0.36450919  0.39254627  0.84047841    -0.22700
C1673       C  0.42137128  0.42400891  0.84793387    -0.05700
H1674       H  0.38672136  0.45427648  0.84969635     0.15000
C1675       C  0.32404525  0.40476970  0.83562793    -0.15900
H1676       H  0.35850278  0.37516494  0.83797849     0.09300
H1677       H  0.45626916  0.36347709  0.79722790     0.07200
H1678       H  0.43298310  0.34461195  0.78964177     0.08400
H1679       H  0.45711074  0.33335856  0.80424977     0.07400
H1680       H  0.37632694  0.36812779  0.88328619     0.02300
H1681       H  0.39780461  0.38927047  0.89052589     0.02800
H1682       H  0.40037704  0.36040215  0.90082957     0.06300
H1683       H  0.42476974  0.44257483  0.85017454     0.05200
H1684       H  0.43048581  0.41824637  0.83225704    -0.00500
H1685       H  0.42843081  0.41484763  0.86299031     0.01000
H1686       H  0.32330959  0.39453570  0.81962025     0.04600
H1687       H  0.31300419  0.41980785  0.83268038     0.06600
H1688       H  0.31682883  0.39437805  0.84982901     0.07400
C1689       C  0.59478656  0.36227466  0.84639102    -0.22200
C1690       C  0.59196454  0.38397664  0.85615865     0.09800
C1691       C  0.57073224  0.39005982  0.86596658     0.10200
C1692       C  0.55280311  0.37411804  0.86605225    -0.17100
C1693       C  0.55547471  0.35228990  0.85632945    -0.27500
C1694       C  0.57667261  0.34644072  0.84590180     0.18500
C1695       C  0.61107247  0.40057337  0.85511315     0.12500
C1696       C  0.56703845  0.41335589  0.87641285    -0.11900
H1697       H  0.53659380  0.37870118  0.87392532     0.12800
C1698       C  0.58062958  0.32445790  0.83295813    -0.22700
H1699       H  0.61104277  0.35793743  0.83846685     0.08400
C1700       C  0.62869624  0.40064228  0.87155993     0.04700
C1701       C  0.64513723  0.41817837  0.87109813    -0.20000
C1702       C  0.64437320  0.43552015  0.85445548    -0.12200
C1703       C  0.62763720  0.43434470  0.83693981     0.13400
C1704       C  0.61093805  0.41712111  0.83780416    -0.22700
C1705       C  0.62969865  0.38262654  0.88995034    -0.05700
H1706       H  0.65800911  0.41891257  0.88442775     0.15000
C1707       C  0.62705699  0.45047543  0.81680563    -0.15900
H1708       H  0.59762408  0.41661045  0.82489436     0.09300
H1709       H  0.59398000  0.31420056  0.84174470     0.07200
H1710       H  0.58670116  0.32851072  0.81538250     0.08400
H1711       H  0.56505714  0.31387868  0.83098967     0.07400
H1712       H  0.56946487  0.42679111  0.86319914     0.02300
H1713       H  0.57949214  0.41612859  0.89047873     0.02800
H1714       H  0.54947794  0.41520900  0.88356769     0.06300
H1715       H  0.64444407  0.38534024  0.90162986     0.05200
H1716       H  0.63155886  0.36547658  0.88198482    -0.00500
H1717       H  0.61371874  0.38303579  0.90030393     0.01000
H1718       H  0.62634393  0.44041272  0.80069113     0.04600
H1719       H  0.64247475  0.46143912  0.81550346     0.06600
H1720       H  0.61155898  0.46144215  0.81788855     0.07400
C1721       C  0.47595179  0.22917114  0.19100155    -0.22200
C1722       C  0.49726073  0.22135399  0.19872072     0.09800
C1723       C  0.51757815  0.23145055  0.19039538     0.10200
C1724       C  0.51610745  0.24953000  0.17471463    -0.17100
C1725       C  0.49478731  0.25755166  0.16707647    -0.27500
C1726       C  0.47439346  0.24738019  0.17545386     0.18500
C1727       C  0.49789309  0.20375192  0.21684196     0.12500
C1728       C  0.54074151  0.22323203  0.19822035    -0.11900
H1729       H  0.53167995  0.25741081  0.16830683     0.12800
C1730       C  0.45076191  0.25598945  0.16955374    -0.22700
H1731       H  0.46041929  0.22153228  0.19779233     0.08400
C1732       C  0.49718252  0.20998152  0.24011781     0.04700
C1733       C  0.49847021  0.19289867  0.25687263    -0.20000
C1734       C  0.50032860  0.16964913  0.25093721    -0.12200
C1735       C  0.50088475  0.16345725  0.22744641     0.13400
C1736       C  0.49965811  0.18067248  0.21070083    -0.22700
C1737       C  0.49518135  0.23470075  0.24722647    -0.05700
H1738       H  0.49792776  0.19778950  0.27476626     0.15000
C1739       C  0.50335820  0.13895552  0.21978025    -0.15900
H1740       H  0.50026499  0.17617836  0.19270232     0.09300
H1741       H  0.44147137  0.26047835  0.18555180     0.07200
H1742       H  0.44109831  0.24234954  0.16053205     0.08400
H1743       H  0.45084466  0.27149846  0.15870627     0.07400
H1744       H  0.54289055  0.20490793  0.19368341     0.02300
H1745       H  0.54224885  0.22521338  0.21705208     0.02800
H1746       H  0.55487983  0.23304072  0.19006475     0.06300
H1747       H  0.49492829  0.23662473  0.26613706     0.05200
H1748       H  0.47906898  0.24207554  0.24036821    -0.00500
H1749       H  0.50997662  0.24457578  0.24045861     0.01000
H1750       H  0.48827405  0.12884474  0.22545310     0.04600
H1751       H  0.51926920  0.13149894  0.22701973     0.06600
H1752       H  0.50443617  0.13753549  0.20084725     0.07400
C1753       C  0.39593558  0.35842494  0.13698044    -0.22200
C1754       C  0.39935855  0.38207481  0.13500643     0.09800
C1755       C  0.42165534  0.39067339  0.13143473     0.10200
C1756       C  0.44004819  0.37540910  0.12976878    -0.17100
C1757       C  0.43684160  0.35160997  0.13143315    -0.27500
C1758       C  0.41437232  0.34299925  0.13517774     0.18500
C1759       C  0.37944075  0.39776667  0.13568835     0.12500
C1760       C  0.42602597  0.41598233  0.12885007    -0.11900
H1761       H  0.45708013  0.38223657  0.12686032     0.12800
C1762       C  0.40949710  0.31775097  0.13713652    -0.22700
H1763       H  0.37868833  0.35204038  0.13968239     0.08400
C1764       C  0.36522382  0.40070072  0.11643244     0.04700
C1765       C  0.34914994  0.41853126  0.11634688    -0.20000
C1766       C  0.34716173  0.43364940  0.13496455    -0.12200
C1767       C  0.35999856  0.42934216  0.15505925     0.13400
C1768       C  0.37617882  0.41158925  0.15502392    -0.22700
C1769       C  0.36787054  0.38585143  0.09550329    -0.05700
H1770       H  0.33916201  0.42156379  0.10102813     0.15000
C1771       C  0.35704663  0.44282268  0.17686126    -0.15900
H1772       H  0.38679913  0.40888445  0.16999069     0.09300
H1773       H  0.41442096  0.30895603  0.12101451     0.07200
H1774       H  0.39101180  0.31431165  0.14018646     0.08400
H1775       H  0.41919013  0.31041773  0.15172228     0.07400
H1776       H  0.42109020  0.42505859  0.14480018     0.02300
H1777       H  0.41585341  0.42281058  0.11434305     0.02800
H1778       H  0.44438744  0.41971211  0.12543029     0.06300
H1779       H  0.35566299  0.39076346  0.08180105     0.05200
H1780       H  0.36455083  0.36771060  0.10004479    -0.00500
H1781       H  0.38553450  0.38749133  0.08857215     0.01000
H1782       H  0.35387453  0.43085004  0.19128891     0.04600
H1783       H  0.34225192  0.45465676  0.17640240     0.06600
H1784       H  0.37290162  0.45269884  0.18042562     0.07400
C1785       C  0.57991623  0.37309354  0.15276794    -0.22200
C1786       C  0.58892894  0.38231245  0.13253133     0.09800
C1787       C  0.58101227  0.37442782  0.11117038     0.10200
C1788       C  0.56354253  0.35801336  0.11053399    -0.17100
C1789       C  0.55370757  0.34947607  0.13076204    -0.27500
C1790       C  0.56252735  0.35653368  0.15219886     0.18500
C1791       C  0.60576480  0.40111204  0.13401818     0.12500
C1792       C  0.59042365  0.38392767  0.08908360    -0.11900
H1793       H  0.55684201  0.35256197  0.09412483     0.12800
C1794       C  0.55461758  0.34667592  0.17472074    -0.22700
H1795       H  0.58639443  0.37900328  0.16911088     0.08400
C1796       C  0.59860391  0.42376567  0.13799377     0.04700
C1797       C  0.61490995  0.44134025  0.13800963    -0.20000
C1798       C  0.63826017  0.43690863  0.13380736    -0.12200
C1799       C  0.64539819  0.41397418  0.13003904     0.13400
C1800       C  0.62899166  0.39637548  0.13035361    -0.22700
C1801       C  0.57365279  0.42946047  0.14161390    -0.05700
H1802       H  0.60920664  0.45874451  0.14087892     0.15000
C1803       C  0.67002115  0.40774970  0.12528500    -0.15900
H1804       H  0.63418434  0.37883314  0.12725468     0.09300
H1805       H  0.54643803  0.36029822  0.18516792     0.07200
H1806       H  0.56964767  0.33989924  0.18416827     0.08400
H1807       H  0.54243745  0.33229024  0.17281441     0.07400
H1808       H  0.60906995  0.38034858  0.08789661     0.02300
H1809       H  0.58760646  0.40270550  0.08845895     0.02800
H1810       H  0.58199717  0.37616540  0.07392539     0.06300
H1811       H  0.57093979  0.44811662  0.14401926     0.05200
H1812       H  0.56711900  0.42054923  0.15708559    -0.00500
H1813       H  0.56355988  0.42393110  0.12650185     0.01000
H1814       H  0.67225217  0.38902281  0.12290212     0.04600
H1815       H  0.68094557  0.41303294  0.13989059     0.06600
H1816       H  0.67594014  0.41625160  0.10933642     0.07400
C1817       C  0.51905931  0.28931705  0.01722199    -0.22200
C1818       C  0.50006698  0.29565601  0.00410826     0.09800
C1819       C  0.47986582  0.30320193  0.01499615     0.10200
C1820       C  0.47923092  0.30455781  0.03891225    -0.17100
C1821       C  0.49840691  0.29880256  0.05220026    -0.27500
C1822       C  0.51873695  0.29119604  0.04116025     0.18500
C1823       C  0.50220063  0.29602703  0.97893205     0.12500
C1824       C  0.45920250  0.31036148  0.00133603    -0.11900
H1825       H  0.46373335  0.31049642  0.04729703     0.12800
C1826       C  0.54090685  0.28633565  0.05347732    -0.22700
H1827       H  0.53462084  0.28387430  0.00861380     0.08400
C1828       C  0.51185863  0.31501889  0.96761764     0.04700
C1829       C  0.51172823  0.31567101  0.94368163    -0.20000
C1830       C  0.50209326  0.29784756  0.93075901    -0.12200
C1831       C  0.49275001  0.27854963  0.94218204     0.13400
C1832       C  0.49316498  0.27785850  0.96619816    -0.22700
C1833       C  0.52175092  0.33485468  0.98080994    -0.05700
H1834       H  0.51891305  0.33041221  0.93496067     0.15000
C1835       C  0.48101182  0.25902557  0.93007551    -0.15900
H1836       H  0.48560927  0.26342183  0.97511030     0.09300
H1837       H  0.55487384  0.29667959  0.04569114     0.07200
H1838       H  0.54526920  0.26793752  0.05163525     0.08400
H1839       H  0.54062988  0.29071144  0.07184873     0.07400
H1840       H  0.45303589  0.29575295  0.99088244     0.02300
H1841       H  0.46381284  0.32478423  0.98984168     0.02800
H1842       H  0.44489548  0.31603604  0.01255920     0.06300
H1843       H  0.52842657  0.34841073  0.96924959     0.05200
H1844       H  0.53612373  0.32883615  0.99165973    -0.00500
H1845       H  0.50831397  0.34255717  0.99187695     0.01000
H1846       H  0.49037128  0.24286955  0.93358748     0.04600
H1847       H  0.47982706  0.26124936  0.91134968     0.06600
H1848       H  0.46321142  0.25732513  0.93665113     0.07400
loop_ 
_geom_bond_atom_site_label_1 
_geom_bond_atom_site_label_2 
_geom_bond_distance 
_geom_bond_site_symmetry_2 
_ccdc_geom_bond_type 
In1           O3   2.259       .  S
In1           O4   2.230       .  S
In1          O12   2.239       .  S
In1           O6   2.247       .  S
In1           O8   2.251       .  S
In1           O9   2.238       .  S
In1          O10   2.232       .  S
In1          O13   2.236       .  S
C2            O8   1.261       .  A
C2           O10   1.259       .  A
C2         C1821   1.476       .  S
O3           C11   1.260       .  A
O4           C11   1.259       .  A
C5           O12   1.258       .  A
C5            O6   1.260       .  A
C5         C1725   1.471       .  S
C7            O9   1.261       .  A
C7           O13   1.261       .  A
C7         C1789   1.473       .  S
C11        C1757   1.488       .  S
In14         O16   2.251       .  S
In14         O17   2.231       .  S
In14         O25   2.235       .  S
In14         O19   2.256       .  S
In14         O21   2.262       .  S
In14         O22   2.245       .  S
In14         O23   2.226       .  S
In14         O26   2.246       .  S
C15          O21   1.261       .  A
C15          O23   1.257       .  A
C15        C1830   1.475       .  S
O16          C24   1.262       .  A
O17          C24   1.260       .  A
C18          O25   1.257       .  A
C18          O19   1.261       .  A
C18        C1629   1.489       .  S
C20          O22   1.260       .  A
C20          O26   1.261       .  A
C20        C1661   1.482       .  S
C24        C1693   1.478       .  S
In27         O29   2.264       .  S
In27         O30   2.236       .  S
In27         O38   2.263       .  S
In27         O32   2.238       .  S
In27         O34   2.254       .  S
In27         O35   2.240       .  S
In27         O36   2.234       .  S
In27         O39   2.253       .  S
C28          O34   1.263       .  A
C28          O36   1.261       .  A
C28        C1597   1.479       .  S
O29          C37   1.261       .  A
O30          C37   1.259       .  A
C31          O38   1.259       .  A
C31          O32   1.256       .  A
C31        C1533   1.474       .  S
C33          O35   1.259       .  A
C33          O39   1.260       .  A
C33        C1565   1.476       .  S
C37        C1670   1.488       .  S
In40         O42   2.252       .  S
In40         O43   2.239       .  S
In40         O51   2.249       .  S
In40         O45   2.263       .  S
In40         O47   2.253       .  S
In40         O48   2.248       .  S
In40         O49   2.238       .  S
In40         O52   2.244       .  S
C41          O47   1.262       .  A
C41          O49   1.259       .  A
C41        C1606   1.476       .  S
O42          C50   1.262       .  A
O43          C50   1.261       .  A
C44          O51   1.256       .  A
C44          O45   1.257       .  A
C44        C1469   1.476       .  S
C46          O48   1.260       .  A
C46          O52   1.259       .  A
C46        C1766   1.480       .  S
C50        C1501   1.480       .  S
In53         O55   2.246       .  S
In53         O56   2.244       .  S
In53         O64   2.264       .  S
In53         O58   2.254       .  S
In53         O60   2.272       .  S
In53         O61   2.231       .  S
In53         O62   2.239       .  S
In53         O65   2.253       .  S
C54          O60   1.262       .  A
C54          O62   1.257       .  A
C54        C1437   1.481       .  S
O55          C63   1.261       .  A
O56          C63   1.260       .  A
C57          O64   1.258       .  A
C57          O58   1.259       .  A
C57        C1373   1.494       .  S
C59          O61   1.260       .  A
C59          O65   1.263       .  A
C59        C1702   1.478       .  S
C63        C1405   1.479       .  S
In66         O68   2.246       .  S
In66         O69   2.230       .  S
In66         O77   2.249       .  S
In66         O71   2.250       .  S
In66         O73   2.263       .  S
In66         O74   2.245       .  S
In66         O75   2.237       .  S
In66         O78   2.251       .  S
C67          O73   1.262       .  A
C67          O75   1.259       .  A
C67        C1446   1.484       .  S
O68          C76   1.262       .  A
O69          C76   1.261       .  A
C70          O77   1.258       .  A
C70          O71   1.260       .  A
C70        C1309   1.487       .  S
C72          O74   1.259       .  A
C72          O78   1.260       .  A
C72        C1341   1.480       .  S
C76        C1798   1.486       .  S
In79         O81   2.242       .  S
In79         O82   2.246       .  S
In79         O90   2.252       .  S
In79         O84   2.254       .  S
In79         O86   2.271       .  S
In79         O87   2.248       .  S
In79         O88   2.230       .  S
In79         O91   2.246       .  S
C80          O86   1.261       .  A
C80          O88   1.257       .  A
C80        C1277   1.479       .  S
O81          C89   1.260       .  A
O82          C89   1.262       .  A
C83          O90   1.257       .  A
C83          O84   1.258       .  A
C83        C1245   1.477       .  S
C85          O87   1.262       .  A
C85          O91   1.261       .  A
C85        C1414   1.482       .  S
C89        C1574   1.489       .  S
In92         O94   2.247       .  S
In92         O95   2.242       .  S
In92        O103   2.251       .  S
In92         O97   2.252       .  S
In92         O99   2.260       .  S
In92        O100   2.240       .  S
In92        O101   2.236       .  S
In92        O104   2.257       .  S
C93          O99   1.262       .  A
C93         O101   1.257       .  A
C93        C1286   1.489       .  S
O94         C102   1.261       .  A
O95         C102   1.261       .  A
C96         O103   1.260       .  A
C96          O97   1.258       .  A
C96        C1213   1.491       .  S
C98         O100   1.259       .  A
C98         O104   1.261       .  A
C98        C1510   1.483       .  S
C102       C1350   1.486       .  S
In105       O107   2.249       .  S
In105       O108   2.242       .  S
In105       O116   2.253       .  S
In105       O110   2.256       .  S
In105       O112   2.252       .  S
In105       O113   2.260       .  S
In105       O114   2.237       .  S
In105       O117   2.250       .  S
C106        O112   1.261       .  A
C106        O114   1.260       .  A
C106       C1190   1.477       .  S
O107        C115   1.261       .  A
O108        C115   1.262       .  A
C109        O116   1.256       .  A
C109        O110   1.257       .  A
C109       C1542   1.489       .  S
C111        O113   1.261       .  A
C111        O117   1.258       .  A
C111       C1117   1.493       .  S
C115       C1149   1.476       .  S
In118       O120   2.251       .  S
In118       O121   2.243       .  S
In118       O129   2.254       .  S
In118       O123   2.249       .  S
In118       O125   2.261       .  S
In118       O126   2.239       .  S
In118       O127   2.230       .  S
In118       O130   2.257       .  S
C119        O125   1.262       .  A
C119        O127   1.259       .  A
C119       C1181   1.480       .  S
O120        C128   1.260       .  A
O121        C128   1.261       .  A
C122        O129   1.260       .  A
C122        O123   1.259       .  A
C122       C1382   1.492       .  S
C124        O126   1.259       .  A
C124        O130   1.261       .  A
C124       C1085   1.477       .  S
C128       C1053   1.483       .  S
In131       O133   2.262       .  S
In131       O134   2.227       .  S
In131       O142   2.240       .  S
In131       O136   2.254       .  S
In131       O138   2.260       .  S
In131       O139   2.235       .  S
In131       O140   2.227       .  S
In131       O143   2.259       .  S
C132        O138   1.261       .  A
C132        O140   1.258       .  A
C132       C1021   1.474       .  S
O133        C141   1.262       .  A
O134        C141   1.259       .  A
C135        O142   1.257       .  A
C135        O136   1.260       .  A
C135        C998   1.485       .  S
C137        O139   1.260       .  A
C137        O143   1.262       .  A
C137        C957   1.482       .  S
C141       C1094   1.482       .  S
In144       O146   2.259       .  S
In144       O147   2.237       .  S
In144       O155   2.238       .  S
In144       O149   2.255       .  S
In144       O151   2.231       .  S
In144       O152   2.246       .  S
In144       O153   2.249       .  S
In144       O156   2.239       .  S
C145        O151   1.258       .  A
C145        O153   1.261       .  A
C145       C1030   1.479       .  S
O146        C154   1.261       .  A
O147        C154   1.260       .  A
C148        O155   1.257       .  A
C148        O149   1.260       .  A
C148        C925   1.487       .  S
C150        O152   1.262       .  A
C150        O156   1.259       .  A
C150       C1158   1.481       .  S
C154        C893   1.484       .  S
In157       O159   2.264       .  S
In157       O160   2.233       .  S
In157       O168   2.243       .  S
In157       O162   2.266       .  S
In157       O164   2.258       .  S
In157       O165   2.237       .  S
In157       O166   2.235       .  S
In157       O169   2.257       .  S
C158        O164   1.262       .  A
C158        O166   1.260       .  A
C158        C861   1.479       .  S
O159        C167   1.262       .  A
O160        C167   1.256       .  A
C161        O168   1.255       .  A
C161        O162   1.259       .  A
C161       C1254   1.486       .  S
C163        O165   1.261       .  A
C163        O169   1.260       .  A
C163        C797   1.489       .  S
C167        C838   1.489       .  S
In170       O172   2.256       .  S
In170       O173   2.234       .  S
In170       O181   2.248       .  S
In170       O175   2.261       .  S
In170       O177   2.262       .  S
In170       O178   2.254       .  S
In170       O179   2.248       .  S
In170       O182   2.251       .  S
C171        O177   1.259       .  A
C171        O179   1.259       .  A
C171        C870   1.492       .  S
O172        C180   1.264       .  A
O173        C180   1.259       .  A
C174        O181   1.258       .  A
C174        O175   1.260       .  A
C174       C1638   1.491       .  S
C176        O178   1.259       .  A
C176        O182   1.260       .  A
C176        C765   1.491       .  S
C180        C733   1.491       .  S
In183       O185   2.256       .  S
In183       O186   2.239       .  S
In183       O194   2.246       .  S
In183       O188   2.260       .  S
In183       O190   2.252       .  S
In183       O191   2.234       .  S
In183       O192   2.247       .  S
In183       O195   2.259       .  S
C184        O190   1.260       .  A
C184        O192   1.259       .  A
C184        C710   1.474       .  S
O185        C193   1.261       .  A
O186        C193   1.260       .  A
C187        O194   1.259       .  A
C187        O188   1.259       .  A
C187        C669   1.490       .  S
C189        O191   1.260       .  A
C189        O195   1.263       .  A
C189        C637   1.480       .  S
C193        C774   1.489       .  S
In196       O198   2.261       .  S
In196       O199   2.237       .  S
In196       O207   2.253       .  S
In196       O201   2.243       .  S
In196       O203   2.253       .  S
In196       O204   2.250       .  S
In196       O205   2.234       .  S
In196       O208   2.240       .  S
C197        O203   1.261       .  A
C197        O205   1.259       .  A
C197        C701   1.485       .  S
O198        C206   1.260       .  A
O199        C206   1.258       .  A
C200        O207   1.260       .  A
C200        O201   1.258       .  A
C200        C989   1.489       .  S
C202        O204   1.261       .  A
C202        O208   1.259       .  A
C202        C829   1.473       .  S
C206        C614   1.478       .  S
In209       O211   2.244       .  S
In209       O212   2.251       .  S
In209       O220   2.249       .  S
In209       O214   2.265       .  S
In209       O216   2.258       .  S
In209       O217   2.245       .  S
In209       O218   2.239       .  S
In209       O221   2.260       .  S
C210        O216   1.261       .  A
C210        O218   1.259       .  A
C210        C573   1.480       .  S
O211        C219   1.259       .  A
O212        C219   1.262       .  A
C213        O220   1.258       .  A
C213        O214   1.259       .  A
C213       C1222   1.482       .  S
C215        O217   1.259       .  A
C215        O221   1.261       .  A
C215        C605   1.483       .  S
C219        C541   1.489       .  S
In222       O224   2.261       .  S
In222       O225   2.238       .  S
In222       O233   2.241       .  S
In222       O227   2.251       .  S
In222       O229   2.262       .  S
In222       O230   2.248       .  S
In222       O231   2.220       .  S
In222       O234   2.250       .  S
C223        O229   1.263       .  A
C223        O231   1.260       .  A
C223        C582   1.480       .  S
O224        C232   1.261       .  A
O225        C232   1.258       .  A
C226        O233   1.259       .  A
C226        O227   1.259       .  A
C226       C1734   1.485       .  S
C228        O230   1.261       .  A
C228        O234   1.260       .  A
C228        C509   1.479       .  S
C232        C646   1.478       .  S
In235       O237   2.256       .  S
In235       O238   2.247       .  S
In235       O246   2.246       .  S
In235       O240   2.254       .  S
In235       O242   2.261       .  S
In235       O243   2.234       .  S
In235       O244   2.237       .  S
In235       O247   2.271       .  S
C236        O242   1.262       .  A
C236        O244   1.260       .  A
C236        C477   1.484       .  S
O237        C245   1.260       .  A
O238        C245   1.260       .  A
C239        O246   1.261       .  A
C239        O240   1.260       .  A
C239        C445   1.491       .  S
C241        O243   1.257       .  A
C241        O247   1.261       .  A
C241        C742   1.482       .  S
C245        C518   1.489       .  S
In248       O250   2.252       .  S
In248       O251   2.234       .  S
In248       O259   2.246       .  S
In248       O253   2.249       .  S
In248       O255   2.250       .  S
In248       O256   2.264       .  S
In248       O257   2.250       .  S
In248       O260   2.232       .  S
C249        O255   1.260       .  A
C249        O257   1.258       .  A
C249        C486   1.490       .  S
O250        C258   1.263       .  A
O251        C258   1.259       .  A
C252        O259   1.259       .  A
C252        O253   1.258       .  A
C252        C934   1.484       .  S
C254        O256   1.262       .  A
C254        O260   1.259       .  A
C254        C550   1.479       .  S
C258        C806   1.487       .  S
In261       O263   2.242       .  S
In261       O264   2.233       .  S
In261       O272   2.238       .  S
In261       O266   2.249       .  S
In261       O268   2.248       .  S
In261       O269   2.232       .  S
In261       O270   2.243       .  S
In261       O273   2.251       .  S
C262        O268   1.260       .  A
C262        O270   1.259       .  A
C262        C422   1.475       .  S
O263        C271   1.260       .  A
O264        C271   1.260       .  A
C265        O272   1.259       .  A
C265        O266   1.260       .  A
C265       C1478   1.484       .  S
C267        O269   1.260       .  A
C267        O273   1.262       .  A
C267        C902   1.473       .  S
C271        C381   1.484       .  S
In274       O276   2.255       .  S
In274       O277   2.244       .  S
In274       O285   2.257       .  S
In274       O279   2.251       .  S
In274       O281   2.258       .  S
In274       O282   2.228       .  S
In274       O283   2.237       .  S
In274       O286   2.262       .  S
C275        O281   1.262       .  A
C275        O283   1.259       .  A
C275        C413   1.481       .  S
O276        C284   1.260       .  A
O277        C284   1.259       .  A
C278        O285   1.259       .  A
C278        O279   1.256       .  A
C278       C1318   1.490       .  S
C280        O282   1.260       .  A
C280        O286   1.262       .  A
C280        C349   1.485       .  S
C284        C966   1.478       .  S
In287       O289   2.255       .  S
In287       O290   2.243       .  S
In287       O298   2.248       .  S
In287       O292   2.253       .  S
In287       O294   2.255       .  S
In287       O295   2.244       .  S
In287       O296   2.252       .  S
In287       O299   2.236       .  S
C288        O294   1.259       .  A
C288        O296   1.258       .  A
C288        C317   1.483       .  S
O289        C297   1.262       .  A
O290        C297   1.259       .  A
C291        O298   1.259       .  A
C291        O292   1.259       .  A
C291        C454   1.489       .  S
C293        O295   1.261       .  A
C293        O299   1.260       .  A
C293        C390   1.476       .  S
C297       C1126   1.491       .  S
In300       O302   2.249       .  S
In300       O303   2.238       .  S
In300       O311   2.254       .  S
In300       O305   2.254       .  S
In300       O307   2.267       .  S
In300       O308   2.252       .  S
In300       O309   2.222       .  S
In300       O312   2.242       .  S
C301        O307   1.265       .  A
C301        O309   1.257       .  A
C301        C326   1.490       .  S
O302        C310   1.262       .  A
O303        C310   1.261       .  A
C304        O311   1.258       .  A
C304        O305   1.260       .  A
C304        C678   1.490       .  S
C306        O308   1.260       .  A
C306        O312   1.258       .  A
C306       C1062   1.477       .  S
C310        C358   1.477       .  S
C313        C314   1.401       .  A
C313        C318   1.405       .  A
C313        H323   1.084       .  S
C314        C319   1.481   1_455  S
C314        C315   1.409       .  A
C315        C316   1.402       .  A
C315        C320   1.507       .  S
C316        C317   1.406       .  A
C316        H321   1.084       .  S
C317        C318   1.419       .  A
C318        C322   1.507       .  S
C319        C324   1.408       .  A
C319        C328   1.398       .  A
C320        H336   1.110       .  S
C320        H337   1.110   1_455  S
C320        H338   1.111       .  S
C322        H333   1.111       .  S
C322        H334   1.110       .  S
C322        H335   1.107       .  S
C324        C325   1.407       .  A
C324        C329   1.505       .  S
C325        C326   1.409       .  A
C325        H330   1.084       .  S
C326        C327   1.423       .  A
C327        C328   1.402       .  A
C327        C331   1.509       .  S
C328        H332   1.084       .  S
C329        H339   1.111       .  S
C329        H340   1.110       .  S
C329        H341   1.110       .  S
C331        H342   1.110       .  S
C331        H343   1.110       .  S
C331        H344   1.111       .  S
C345        C346   1.401       .  A
C345        C350   1.406       .  A
C345        H355   1.084       .  S
C346        C351   1.480       .  S
C346        C347   1.408       .  A
C347        C348   1.399       .  A
C347        C352   1.507       .  S
C348        C349   1.407       .  A
C348        H353   1.084       .  S
C349        C350   1.420       .  A
C350        C354   1.507       .  S
C351        C356   1.409       .  A
C351        C360   1.401       .  A
C352        H368   1.110       .  S
C352        H369   1.110       .  S
C352        H370   1.111       .  S
C354        H365   1.111       .  S
C354        H366   1.110       .  S
C354        H367   1.108       .  S
C356        C357   1.403       .  A
C356        C361   1.506       .  S
C357        C358   1.404       .  A
C357        H362   1.084       .  S
C358        C359   1.419       .  A
C359        C360   1.403       .  A
C359        C363   1.509       .  S
C360        H364   1.084       .  S
C361        H371   1.111       .  S
C361        H372   1.110       .  S
C361        H373   1.110       .  S
C363        H374   1.110       .  S
C363        H375   1.105       .  S
C363        H376   1.111       .  S
C377        C378   1.399       .  A
C377        C382   1.404       .  A
C377        H387   1.084       .  S
C378        C383   1.474       .  S
C378        C379   1.407       .  A
C379        C380   1.399       .  A
C379        C384   1.508       .  S
C380        C381   1.407       .  A
C380        H385   1.084       .  S
C381        C382   1.421       .  A
C382        C386   1.508       .  S
C383        C388   1.409       .  A
C383        C392   1.399       .  A
C384        H400   1.110       .  S
C384        H401   1.110       .  S
C384        H402   1.111       .  S
C386        H397   1.110       .  S
C386        H398   1.111       .  S
C386        H399   1.110       .  S
C388        C389   1.399       .  A
C388        C393   1.508       .  S
C389        C390   1.404       .  A
C389        H394   1.084       .  S
C390        C391   1.418       .  A
C391        C392   1.403       .  A
C391        C395   1.508       .  S
C392        H396   1.085       .  S
C393        H403   1.111       .  S
C393        H404   1.110       .  S
C393        H405   1.110       .  S
C395        H406   1.111       .  S
C395        H407   1.106       .  S
C395        H408   1.110       .  S
C409        C410   1.401       .  A
C409        C414   1.406       .  A
C409        H419   1.084       .  S
C410        C415   1.479   1_655  S
C410        C411   1.409       .  A
C411        C412   1.399       .  A
C411        C416   1.508       .  S
C412        C413   1.405       .  A
C412        H417   1.084       .  S
C413        C414   1.419       .  A
C414        C418   1.508       .  S
C415        C420   1.409       .  A
C415        C424   1.400       .  A
C416        H432   1.110       .  S
C416        H433   1.110       .  S
C416        H434   1.111       .  S
C418        H429   1.111       .  S
C418        H430   1.110       .  S
C418        H431   1.106       .  S
C420        C421   1.403       .  A
C420        C425   1.506       .  S
C421        C422   1.404       .  A
C421        H426   1.084       .  S
C422        C423   1.419       .  A
C423        C424   1.402       .  A
C423        C427   1.509       .  S
C424        H428   1.084       .  S
C425        H435   1.111       .  S
C425        H436   1.110       .  S
C425        H437   1.110   1_455  S
C427        H438   1.110       .  S
C427        H439   1.104       .  S
C427        H440   1.111       .  S
C441        C442   1.400       .  A
C441        C446   1.406       .  A
C441        H451   1.085       .  S
C442        C447   1.484       .  S
C442        C443   1.410       .  A
C443        C444   1.403       .  A
C443        C448   1.507       .  S
C444        C445   1.408       .  A
C444        H449   1.083       .  S
C445        C446   1.421       .  A
C446        C450   1.507       .  S
C447        C452   1.410       .  A
C447        C456   1.400       .  A
C448        H464   1.109       .  S
C448        H465   1.111       .  S
C448        H466   1.111       .  S
C450        H461   1.110       .  S
C450        H462   1.111       .  S
C450        H463   1.110       .  S
C452        C453   1.405       .  A
C452        C457   1.507       .  S
C453        C454   1.408       .  A
C453        H458   1.083       .  S
C454        C455   1.420       .  A
C455        C456   1.404       .  A
C455        C459   1.508       .  S
C456        H460   1.084       .  S
C457        H467   1.111       .  S
C457        H468   1.110       .  S
C457        H469   1.110       .  S
C459        H470   1.111       .  S
C459        H471   1.110       .  S
C459        H472   1.111       .  S
C473        C474   1.399       .  A
C473        C478   1.402       .  A
C473        H483   1.084       .  S
C474        C479   1.482   1_545  S
C474        C475   1.410       .  A
C475        C476   1.408       .  A
C475        C480   1.505       .  S
C476        C477   1.407       .  A
C476        H481   1.084       .  S
C477        C478   1.419       .  A
C478        C482   1.508       .  S
C479        C484   1.408       .  A
C479        C488   1.400       .  A
C480        H496   1.110       .  S
C480        H497   1.110       .  S
C480        H498   1.111       .  S
C482        H493   1.111       .  S
C482        H494   1.111       .  S
C482        H495   1.110       .  S
C484        C485   1.403       .  A
C484        C489   1.506       .  S
C485        C486   1.408       .  A
C485        H490   1.084       .  S
C486        C487   1.422       .  A
C487        C488   1.406       .  A
C487        C491   1.508       .  S
C488        H492   1.084       .  S
C489        H499   1.111       .  S
C489        H500   1.110       .  S
C489        H501   1.110       .  S
C491        H502   1.110       .  S
C491        H503   1.110       .  S
C491        H504   1.111       .  S
C505        C506   1.402       .  A
C505        C510   1.405       .  A
C505        H515   1.084       .  S
C506        C511   1.484       .  S
C506        C507   1.412       .  A
C507        C508   1.403       .  A
C507        C512   1.507       .  S
C508        C509   1.404       .  A
C508        H513   1.084       .  S
C509        C510   1.417       .  A
C510        C514   1.507       .  S
C511        C516   1.410       .  A
C511        C520   1.401       .  A
C512        H528   1.110       .  S
C512        H529   1.111       .  S
C512        H530   1.111       .  S
C514        H525   1.110       .  S
C514        H526   1.111       .  S
C514        H527   1.107       .  S
C516        C517   1.403       .  A
C516        C521   1.507       .  S
C517        C518   1.407       .  A
C517        H522   1.084       .  S
C518        C519   1.420       .  A
C519        C520   1.407       .  A
C519        C523   1.507       .  S
C520        H524   1.084       .  S
C521        H531   1.111       .  S
C521        H532   1.110       .  S
C521        H533   1.110       .  S
C523        H534   1.111       .  S
C523        H535   1.110       .  S
C523        H536   1.110       .  S
C537        C538   1.399       .  A
C537        C542   1.404       .  A
C537        H547   1.085       .  S
C538        C543   1.481       .  S
C538        C539   1.408       .  A
C539        C540   1.404       .  A
C539        C544   1.506       .  S
C540        C541   1.408       .  A
C540        H545   1.084       .  S
C541        C542   1.421       .  A
C542        C546   1.508       .  S
C543        C548   1.409       .  A
C543        C552   1.401       .  A
C544        H560   1.110       .  S
C544        H561   1.110       .  S
C544        H562   1.111       .  S
C546        H557   1.110       .  S
C546        H558   1.111       .  S
C546        H559   1.110       .  S
C548        C549   1.400       .  A
C548        C553   1.507       .  S
C549        C550   1.404       .  A
C549        H554   1.085       .  S
C550        C551   1.419       .  A
C551        C552   1.406       .  A
C551        C555   1.508       .  S
C552        H556   1.085       .  S
C553        H563   1.111       .  S
C553        H564   1.110       .  S
C553        H565   1.110       .  S
C555        H566   1.111       .  S
C555        H567   1.105       .  S
C555        H568   1.110       .  S
C569        C570   1.400       .  A
C569        C574   1.404       .  A
C569        H579   1.085       .  S
C570        C575   1.480   1_565  S
C570        C571   1.409       .  A
C571        C572   1.403       .  A
C571        C576   1.507       .  S
C572        C573   1.406       .  A
C572        H577   1.084       .  S
C573        C574   1.421       .  A
C574        C578   1.509       .  S
C575        C580   1.409       .  A
C575        C584   1.403       .  A
C576        H592   1.110       .  S
C576        H593   1.110       .  S
C576        H594   1.111       .  S
C578        H589   1.111       .  S
C578        H590   1.110       .  S
C578        H591   1.103       .  S
C580        C581   1.397       .  A
C580        C585   1.508       .  S
C581        C582   1.404       .  A
C581        H586   1.084       .  S
C582        C583   1.420       .  A
C583        C584   1.409       .  A
C583        C587   1.508       .  S
C584        H588   1.084       .  S
C585        H595   1.111       .  S
C585        H596   1.110   1_545  S
C585        H597   1.110   1_545  S
C587        H598   1.110       .  S
C587        H599   1.105       .  S
C587        H600   1.111       .  S
C601        C602   1.401       .  A
C601        C606   1.407       .  A
C601        H611   1.084       .  S
C602        C607   1.483       .  S
C602        C603   1.410       .  A
C603        C604   1.403       .  A
C603        C608   1.507       .  S
C604        C605   1.405       .  A
C604        H609   1.084       .  S
C605        C606   1.420       .  A
C606        C610   1.508       .  S
C607        C612   1.411       .  A
C607        C616   1.401       .  A
C608        H624   1.110       .  S
C608        H625   1.110       .  S
C608        H626   1.111       .  S
C610        H621   1.110       .  S
C610        H622   1.111       .  S
C610        H623   1.104       .  S
C612        C613   1.406       .  A
C612        C617   1.505       .  S
C613        C614   1.405       .  A
C613        H618   1.084       .  S
C614        C615   1.417       .  A
C615        C616   1.402       .  A
C615        C619   1.509       .  S
C616        H620   1.084       .  S
C617        H627   1.111       .  S
C617        H628   1.110       .  S
C617        H629   1.110       .  S
C619        H630   1.111       .  S
C619        H631   1.107       .  S
C619        H632   1.110       .  S
C633        C634   1.401       .  A
C633        C638   1.406       .  A
C633        H643   1.084       .  S
C634        C639   1.482       .  S
C634        C635   1.410       .  A
C635        C636   1.401       .  A
C635        C640   1.507       .  S
C636        C637   1.405       .  A
C636        H641   1.084       .  S
C637        C638   1.419       .  A
C638        C642   1.508       .  S
C639        C644   1.410       .  A
C639        C648   1.401       .  A
C640        H656   1.110       .  S
C640        H657   1.111       .  S
C640        H658   1.111       .  S
C642        H653   1.110       .  S
C642        H654   1.110       .  S
C642        H655   1.104       .  S
C644        C645   1.405       .  A
C644        C649   1.506       .  S
C645        C646   1.404       .  A
C645        H650   1.084       .  S
C646        C647   1.417       .  A
C647        C648   1.402       .  A
C647        C651   1.509       .  S
C648        H652   1.085       .  S
C649        H659   1.111       .  S
C649        H660   1.110       .  S
C649        H661   1.110       .  S
C651        H662   1.111       .  S
C651        H663   1.107       .  S
C651        H664   1.110       .  S
C665        C666   1.401       .  A
C665        C670   1.407       .  A
C665        H675   1.084       .  S
C666        C671   1.484       .  S
C666        C667   1.409       .  A
C667        C668   1.402       .  A
C667        C672   1.507       .  S
C668        C669   1.407       .  A
C668        H673   1.083       .  S
C669        C670   1.421       .  A
C670        C674   1.507       .  S
C671        C676   1.409       .  A
C671        C680   1.400       .  A
C672        H688   1.110       .  S
C672        H689   1.110       .  S
C672        H690   1.111       .  S
C674        H685   1.110       .  S
C674        H686   1.111       .  S
C674        H687   1.110       .  S
C676        C677   1.404       .  A
C676        C681   1.506       .  S
C677        C678   1.408       .  A
C677        H682   1.084       .  S
C678        C679   1.421       .  A
C679        C680   1.406       .  A
C679        C683   1.507       .  S
C680        H684   1.084       .  S
C681        H691   1.111       .  S
C681        H692   1.110       .  S
C681        H693   1.111       .  S
C683        H694   1.111       .  S
C683        H695   1.110       .  S
C683        H696   1.110       .  S
C697        C698   1.400       .  A
C697        C702   1.407       .  A
C697        H707   1.084       .  S
C698        C703   1.479   1_565  S
C698        C699   1.410       .  A
C699        C700   1.400       .  A
C699        C704   1.508       .  S
C700        C701   1.406       .  A
C700        H705   1.084       .  S
C701        C702   1.419       .  A
C702        C706   1.507       .  S
C703        C708   1.410       .  A
C703        C712   1.399       .  A
C704        H720   1.110   1_565  S
C704        H721   1.109   1_565  S
C704        H722   1.111       .  S
C706        H717   1.111       .  S
C706        H718   1.110       .  S
C706        H719   1.111       .  S
C708        C709   1.405       .  A
C708        C713   1.506       .  S
C709        C710   1.405       .  A
C709        H714   1.084       .  S
C710        C711   1.418       .  A
C711        C712   1.401       .  A
C711        C715   1.510       .  S
C712        H716   1.085       .  S
C713        H723   1.111       .  S
C713        H724   1.110       .  S
C713        H725   1.109       .  S
C715        H726   1.110       .  S
C715        H727   1.105       .  S
C715        H728   1.111       .  S
C729        C730   1.399       .  A
C729        C734   1.404       .  A
C729        H739   1.085       .  S
C730        C735   1.482       .  S
C730        C731   1.409       .  A
C731        C732   1.405       .  A
C731        C736   1.506       .  S
C732        C733   1.408       .  A
C732        H737   1.083       .  S
C733        C734   1.422       .  A
C734        C738   1.509       .  S
C735        C740   1.411       .  A
C735        C744   1.399       .  A
C736        H752   1.110       .  S
C736        H753   1.110       .  S
C736        H754   1.111       .  S
C738        H749   1.110       .  S
C738        H750   1.111       .  S
C738        H751   1.110       .  S
C740        C741   1.407       .  A
C740        C745   1.506       .  S
C741        C742   1.406       .  A
C741        H746   1.084       .  S
C742        C743   1.418       .  A
C743        C744   1.400       .  A
C743        C747   1.509       .  S
C744        H748   1.085       .  S
C745        H755   1.111       .  S
C745        H756   1.110       .  S
C745        H757   1.111       .  S
C747        H758   1.110       .  S
C747        H759   1.107       .  S
C747        H760   1.111       .  S
C761        C762   1.400       .  A
C761        C766   1.407       .  A
C761        H771   1.085       .  S
C762        C767   1.483       .  S
C762        C763   1.409       .  A
C763        C764   1.402       .  A
C763        C768   1.508       .  S
C764        C765   1.407       .  A
C764        H769   1.084       .  S
C765        C766   1.422       .  A
C766        C770   1.507       .  S
C767        C772   1.409       .  A
C767        C776   1.401       .  A
C768        H784   1.110       .  S
C768        H785   1.111       .  S
C768        H786   1.111       .  S
C770        H781   1.110       .  S
C770        H782   1.111       .  S
C770        H783   1.110       .  S
C772        C773   1.402       .  A
C772        C777   1.507       .  S
C773        C774   1.408       .  A
C773        H778   1.084       .  S
C774        C775   1.420       .  A
C775        C776   1.407       .  A
C775        C779   1.507       .  S
C776        H780   1.084       .  S
C777        H787   1.111       .  S
C777        H788   1.110       .  S
C777        H789   1.110       .  S
C779        H790   1.111       .  S
C779        H791   1.110       .  S
C779        H792   1.110       .  S
C793        C794   1.401       .  A
C793        C798   1.408       .  A
C793        H803   1.085       .  S
C794        C799   1.482       .  S
C794        C795   1.410       .  A
C795        C796   1.400       .  A
C795        C800   1.508       .  S
C796        C797   1.406       .  A
C796        H801   1.084       .  S
C797        C798   1.421       .  A
C798        C802   1.508       .  S
C799        C804   1.410       .  A
C799        C808   1.399       .  A
C800        H816   1.109       .  S
C800        H817   1.110       .  S
C800        H818   1.111       .  S
C802        H813   1.110       .  S
C802        H814   1.111       .  S
C802        H815   1.110       .  S
C804        C805   1.406       .  A
C804        C809   1.506       .  S
C805        C806   1.408       .  A
C805        H810   1.084       .  S
C806        C807   1.420       .  A
C807        C808   1.401       .  A
C807        C811   1.509       .  S
C808        H812   1.084       .  S
C809        H819   1.111       .  S
C809        H820   1.110       .  S
C809        H821   1.110       .  S
C811        H822   1.111       .  S
C811        H823   1.110       .  S
C811        H824   1.110       .  S
C825        C826   1.400       .  A
C825        C830   1.399       .  A
C825        H835   1.084       .  S
C826        C831   1.481       .  S
C826        C827   1.412       .  A
C827        C828   1.406       .  A
C827        C832   1.506       .  S
C828        C829   1.404       .  A
C828        H833   1.084       .  S
C829        C830   1.417       .  A
C830        C834   1.509       .  S
C831        C836   1.410       .  A
C831        C840   1.399       .  A
C832        H848   1.109       .  S
C832        H849   1.110       .  S
C832        H850   1.111       .  S
C834        H845   1.110       .  S
C834        H846   1.111       .  S
C834        H847   1.105       .  S
C836        C837   1.405       .  A
C836        C841   1.507       .  S
C837        C838   1.407       .  A
C837        H842   1.084       .  S
C838        C839   1.422       .  A
C839        C840   1.403       .  A
C839        C843   1.509       .  S
C840        H844   1.084       .  S
C841        H851   1.111       .  S
C841        H852   1.109       .  S
C841        H853   1.110       .  S
C843        H854   1.111       .  S
C843        H855   1.110       .  S
C843        H856   1.110       .  S
C857        C858   1.400       .  A
C857        C862   1.404       .  A
C857        H867   1.084       .  S
C858        C863   1.483   1_565  S
C858        C859   1.410       .  A
C859        C860   1.403       .  A
C859        C864   1.506       .  S
C860        C861   1.405       .  A
C860        H865   1.084       .  S
C861        C862   1.420       .  A
C862        C866   1.509       .  S
C863        C868   1.410       .  A
C863        C872   1.400       .  A
C864        H880   1.110       .  S
C864        H881   1.110       .  S
C864        H882   1.111       .  S
C866        H877   1.111       .  S
C866        H878   1.110       .  S
C866        H879   1.103       .  S
C868        C869   1.401       .  A
C868        C873   1.508       .  S
C869        C870   1.407       .  A
C869        H874   1.083       .  S
C870        C871   1.422       .  A
C871        C872   1.408       .  A
C871        C875   1.507       .  S
C872        H876   1.084       .  S
C873        H883   1.111       .  S
C873        H884   1.110   1_545  S
C873        H885   1.110   1_545  S
C875        H886   1.110       .  S
C875        H887   1.110       .  S
C875        H888   1.111       .  S
C889        C890   1.400       .  A
C889        C894   1.407       .  A
C889        H899   1.085       .  S
C890        C895   1.479       .  S
C890        C891   1.408       .  A
C891        C892   1.399       .  A
C891        C896   1.508       .  S
C892        C893   1.405       .  A
C892        H897   1.084       .  S
C893        C894   1.422       .  A
C894        C898   1.508       .  S
C895        C900   1.409       .  A
C895        C904   1.402       .  A
C896        H912   1.110       .  S
C896        H913   1.110       .  S
C896        H914   1.111       .  S
C898        H909   1.111       .  S
C898        H910   1.110       .  S
C898        H911   1.104       .  S
C900        C901   1.400       .  A
C900        C905   1.507       .  S
C901        C902   1.403       .  A
C901        H906   1.083       .  S
C902        C903   1.416       .  A
C903        C904   1.405       .  A
C903        C907   1.508       .  S
C904        H908   1.084       .  S
C905        H915   1.111       .  S
C905        H916   1.110       .  S
C905        H917   1.109       .  S
C907        H918   1.110       .  S
C907        H919   1.106       .  S
C907        H920   1.111       .  S
C921        C922   1.399       .  A
C921        C926   1.403       .  A
C921        H931   1.084       .  S
C922        C927   1.478       .  S
C922        C923   1.408       .  A
C923        C924   1.403       .  A
C923        C928   1.506       .  S
C924        C925   1.408       .  A
C924        H929   1.084       .  S
C925        C926   1.421       .  A
C926        C930   1.508       .  S
C927        C932   1.408       .  A
C927        C936   1.399       .  A
C928        H944   1.110       .  S
C928        H945   1.110       .  S
C928        H946   1.111       .  S
C930        H941   1.110       .  S
C930        H942   1.111       .  S
C930        H943   1.111       .  S
C932        C933   1.402       .  A
C932        C937   1.507       .  S
C933        C934   1.407       .  A
C933        H938   1.084       .  S
C934        C935   1.419       .  A
C935        C936   1.404       .  A
C935        C939   1.507       .  S
C936        H940   1.083       .  S
C937        H947   1.111       .  S
C937        H948   1.110       .  S
C937        H949   1.110       .  S
C939        H950   1.111       .  S
C939        H951   1.110       .  S
C939        H952   1.110       .  S
C953        C954   1.402       .  A
C953        C958   1.407       .  A
C953        H963   1.084       .  S
C954        C959   1.480       .  S
C954        C955   1.410       .  A
C955        C956   1.400       .  A
C955        C960   1.509       .  S
C956        C957   1.405       .  A
C956        H961   1.084       .  S
C957        C958   1.418       .  A
C958        C962   1.507       .  S
C959        C964   1.409       .  A
C959        C968   1.400       .  A
C960        H976   1.110       .  S
C960        H977   1.109       .  S
C960        H978   1.111       .  S
C962        H973   1.111       .  S
C962        H974   1.110       .  S
C962        H975   1.107       .  S
C964        C965   1.404       .  A
C964        C969   1.507       .  S
C965        C966   1.405       .  A
C965        H970   1.084       .  S
C966        C967   1.419       .  A
C967        C968   1.403       .  A
C967        C971   1.509       .  S
C968        H972   1.085       .  S
C969        H979   1.111       .  S
C969        H980   1.110       .  S
C969        H981   1.109       .  S
C971        H982   1.110       .  S
C971        H983   1.104       .  S
C971        H984   1.111       .  S
C985        C986   1.398       .  A
C985        C990   1.404       .  A
C985        H995   1.084       .  S
C986        C991   1.480       .  S
C986        C987   1.409       .  A
C987        C988   1.403       .  A
C987        C992   1.507       .  S
C988        C989   1.408       .  A
C988        H993   1.084       .  S
C989        C990   1.422       .  A
C990        C994   1.507       .  S
C991        C996   1.409       .  A
C991       C1000   1.399       .  A
C992       H1008   1.110       .  S
C992       H1009   1.111       .  S
C992       H1010   1.111       .  S
C994       H1005   1.110       .  S
C994       H1006   1.111       .  S
C994       H1007   1.110       .  S
C996        C997   1.403       .  A
C996       C1001   1.506       .  S
C997        C998   1.406       .  A
C997       H1002   1.084       .  S
C998        C999   1.420       .  A
C999       C1000   1.403       .  A
C999       C1003   1.508       .  S
C1000      H1004   1.085       .  S
C1001      H1011   1.111       .  S
C1001      H1012   1.110       .  S
C1001      H1013   1.110       .  S
C1003      H1014   1.111       .  S
C1003      H1015   1.111       .  S
C1003      H1016   1.109       .  S
C1017      C1018   1.399       .  A
C1017      C1022   1.399       .  A
C1017      H1027   1.085       .  S
C1018      C1023   1.478   1_655  S
C1018      C1019   1.410       .  A
C1019      C1020   1.406       .  A
C1019      C1024   1.506       .  S
C1020      C1021   1.405       .  A
C1020      H1025   1.084       .  S
C1021      C1022   1.417       .  A
C1022      C1026   1.510       .  S
C1023      C1028   1.409       .  A
C1023      C1032   1.400       .  A
C1024      H1040   1.110       .  S
C1024      H1041   1.111       .  S
C1024      H1042   1.110       .  S
C1026      H1037   1.111       .  S
C1026      H1038   1.110       .  S
C1026      H1039   1.106       .  S
C1028      C1029   1.402       .  A
C1028      C1033   1.507       .  S
C1029      C1030   1.406       .  A
C1029      H1034   1.084       .  S
C1030      C1031   1.417       .  A
C1031      C1032   1.404       .  A
C1031      C1035   1.508       .  S
C1032      H1036   1.084       .  S
C1033      H1043   1.111       .  S
C1033      H1044   1.110       .  S
C1033      H1045   1.110       .  S
C1035      H1046   1.111       .  S
C1035      H1047   1.110       .  S
C1035      H1048   1.111       .  S
C1049      C1050   1.401       .  A
C1049      C1054   1.405       .  A
C1049      H1059   1.084       .  S
C1050      C1055   1.481       .  S
C1050      C1051   1.409       .  A
C1051      C1052   1.401       .  A
C1051      C1056   1.507       .  S
C1052      C1053   1.406       .  A
C1052      H1057   1.084       .  S
C1053      C1054   1.419       .  A
C1054      C1058   1.507       .  S
C1055      C1060   1.410       .  A
C1055      C1064   1.402       .  A
C1056      H1072   1.110       .  S
C1056      H1073   1.110       .  S
C1056      H1074   1.111       .  S
C1058      H1069   1.110       .  S
C1058      H1070   1.111       .  S
C1058      H1071   1.106       .  S
C1060      C1061   1.401       .  A
C1060      C1065   1.507       .  S
C1061      C1062   1.404       .  A
C1061      H1066   1.084       .  S
C1062      C1063   1.416       .  A
C1063      C1064   1.405       .  A
C1063      C1067   1.507       .  S
C1064      H1068   1.084       .  S
C1065      H1075   1.111       .  S
C1065      H1076   1.110       .  S
C1065      H1077   1.110       .  S
C1067      H1078   1.111       .  S
C1067      H1079   1.107       .  S
C1067      H1080   1.110       .  S
C1081      C1082   1.401       .  A
C1081      C1086   1.405       .  A
C1081      H1091   1.084       .  S
C1082      C1087   1.480       .  S
C1082      C1083   1.410       .  A
C1083      C1084   1.401       .  A
C1083      C1088   1.507       .  S
C1084      C1085   1.404       .  A
C1084      H1089   1.084       .  S
C1085      C1086   1.417       .  A
C1086      C1090   1.508       .  S
C1087      C1092   1.408       .  A
C1087      C1096   1.401       .  A
C1088      H1104   1.110       .  S
C1088      H1105   1.109       .  S
C1088      H1106   1.111       .  S
C1090      H1101   1.111       .  S
C1090      H1102   1.110       .  S
C1090      H1103   1.106       .  S
C1092      C1093   1.400       .  A
C1092      C1097   1.507       .  S
C1093      C1094   1.406       .  A
C1093      H1098   1.084       .  S
C1094      C1095   1.422       .  A
C1095      C1096   1.407       .  A
C1095      C1099   1.509       .  S
C1096      H1100   1.085       .  S
C1097      H1107   1.111       .  S
C1097      H1108   1.110       .  S
C1097      H1109   1.110       .  S
C1099      H1110   1.111       .  S
C1099      H1111   1.103       .  S
C1099      H1112   1.111       .  S
C1113      C1114   1.400       .  A
C1113      C1118   1.406       .  A
C1113      H1123   1.085       .  S
C1114      C1119   1.484       .  S
C1114      C1115   1.409       .  A
C1115      C1116   1.405       .  A
C1115      C1120   1.506       .  S
C1116      C1117   1.409       .  A
C1116      H1121   1.083       .  S
C1117      C1118   1.422       .  A
C1118      C1122   1.508       .  S
C1119      C1124   1.409       .  A
C1119      C1128   1.400       .  A
C1120      H1136   1.110       .  S
C1120      H1137   1.110       .  S
C1120      H1138   1.111       .  S
C1122      H1133   1.110       .  S
C1122      H1134   1.111       .  S
C1122      H1135   1.110       .  S
C1124      C1125   1.405       .  A
C1124      C1129   1.506       .  S
C1125      C1126   1.409       .  A
C1125      H1130   1.083       .  S
C1126      C1127   1.421       .  A
C1127      C1128   1.405       .  A
C1127      C1131   1.508       .  S
C1128      H1132   1.085       .  S
C1129      H1139   1.111       .  S
C1129      H1140   1.110       .  S
C1129      H1141   1.110       .  S
C1131      H1142   1.111       .  S
C1131      H1143   1.110       .  S
C1131      H1144   1.110       .  S
C1145      C1146   1.400       .  A
C1145      C1150   1.403       .  A
C1145      H1155   1.085       .  S
C1146      C1151   1.479       .  S
C1146      C1147   1.409       .  A
C1147      C1148   1.403       .  A
C1147      C1152   1.506       .  S
C1148      C1149   1.404       .  A
C1148      H1153   1.084       .  S
C1149      C1150   1.419       .  A
C1150      C1154   1.510       .  S
C1151      C1156   1.410       .  A
C1151      C1160   1.400       .  A
C1152      H1168   1.110       .  S
C1152      H1169   1.110       .  S
C1152      H1170   1.111       .  S
C1154      H1165   1.111       .  S
C1154      H1166   1.110       .  S
C1154      H1167   1.104       .  S
C1156      C1157   1.400       .  A
C1156      C1161   1.508       .  S
C1157      C1158   1.404       .  A
C1157      H1162   1.084       .  S
C1158      C1159   1.420       .  A
C1159      C1160   1.406       .  A
C1159      C1163   1.508       .  S
C1160      H1164   1.084       .  S
C1161      H1171   1.111       .  S
C1161      H1172   1.110       .  S
C1161      H1173   1.110       .  S
C1163      H1174   1.110       .  S
C1163      H1175   1.106       .  S
C1163      H1176   1.111       .  S
C1177      C1178   1.401       .  A
C1177      C1182   1.406       .  A
C1177      H1187   1.084       .  S
C1178      C1183   1.480   1_655  S
C1178      C1179   1.408       .  A
C1179      C1180   1.400       .  A
C1179      C1184   1.507       .  S
C1180      C1181   1.405       .  A
C1180      H1185   1.084       .  S
C1181      C1182   1.420       .  A
C1182      C1186   1.508       .  S
C1183      C1188   1.409       .  A
C1183      C1192   1.401       .  A
C1184      H1200   1.110   1_655  S
C1184      H1201   1.110   1_655  S
C1184      H1202   1.111       .  S
C1186      H1197   1.111       .  S
C1186      H1198   1.110       .  S
C1186      H1199   1.103       .  S
C1188      C1189   1.401       .  A
C1188      C1193   1.507       .  S
C1189      C1190   1.404       .  A
C1189      H1194   1.084       .  S
C1190      C1191   1.419       .  A
C1191      C1192   1.405       .  A
C1191      C1195   1.508       .  S
C1192      H1196   1.084       .  S
C1193      H1203   1.111       .  S
C1193      H1204   1.110       .  S
C1193      H1205   1.110   1_455  S
C1195      H1206   1.110       .  S
C1195      H1207   1.105       .  S
C1195      H1208   1.111       .  S
C1209      C1210   1.400       .  A
C1209      C1214   1.407       .  A
C1209      H1219   1.084       .  S
C1210      C1215   1.483       .  S
C1210      C1211   1.409       .  A
C1211      C1212   1.403       .  A
C1211      C1216   1.507       .  S
C1212      C1213   1.408       .  A
C1212      H1217   1.084       .  S
C1213      C1214   1.422       .  A
C1214      C1218   1.507       .  S
C1215      C1220   1.409       .  A
C1215      C1224   1.401       .  A
C1216      H1232   1.110       .  S
C1216      H1233   1.110       .  S
C1216      H1234   1.111       .  S
C1218      H1229   1.111       .  S
C1218      H1230   1.110       .  S
C1218      H1231   1.110       .  S
C1220      C1221   1.403       .  A
C1220      C1225   1.506       .  S
C1221      C1222   1.406       .  A
C1221      H1226   1.084       .  S
C1222      C1223   1.419       .  A
C1223      C1224   1.406       .  A
C1223      C1227   1.508       .  S
C1224      H1228   1.085       .  S
C1225      H1235   1.111       .  S
C1225      H1236   1.110       .  S
C1225      H1237   1.110       .  S
C1227      H1238   1.110       .  S
C1227      H1239   1.105       .  S
C1227      H1240   1.111       .  S
C1241      C1242   1.401       .  A
C1241      C1246   1.403       .  A
C1241      H1251   1.085       .  S
C1242      C1247   1.481       .  S
C1242      C1243   1.410       .  A
C1243      C1244   1.403       .  A
C1243      C1248   1.506       .  S
C1244      C1245   1.405       .  A
C1244      H1249   1.084       .  S
C1245      C1246   1.418       .  A
C1246      C1250   1.508       .  S
C1247      C1252   1.409       .  A
C1247      C1256   1.398       .  A
C1248      H1264   1.110       .  S
C1248      H1265   1.110       .  S
C1248      H1266   1.110       .  S
C1250      H1261   1.110       .  S
C1250      H1262   1.111       .  S
C1250      H1263   1.105       .  S
C1252      C1253   1.405       .  A
C1252      C1257   1.506       .  S
C1253      C1254   1.407       .  A
C1253      H1258   1.083       .  S
C1254      C1255   1.421       .  A
C1255      C1256   1.403       .  A
C1255      C1259   1.508       .  S
C1256      H1260   1.085       .  S
C1257      H1267   1.111       .  S
C1257      H1268   1.110       .  S
C1257      H1269   1.111       .  S
C1259      H1270   1.111       .  S
C1259      H1271   1.110       .  S
C1259      H1272   1.110       .  S
C1273      C1274   1.400       .  A
C1273      C1278   1.400       .  A
C1273      H1283   1.084       .  S
C1274      C1279   1.481   1_556  S
C1274      C1275   1.411       .  A
C1275      C1276   1.407       .  A
C1275      C1280   1.505       .  S
C1276      C1277   1.406       .  A
C1276      H1281   1.084       .  S
C1277      C1278   1.417       .  A
C1278      C1282   1.509       .  S
C1279      C1284   1.409       .  A
C1279      C1288   1.399       .  A
C1280      H1296   1.110       .  S
C1280      H1297   1.111       .  S
C1280      H1298   1.111       .  S
C1282      H1293   1.111       .  S
C1282      H1294   1.110       .  S
C1282      H1295   1.107       .  S
C1284      C1285   1.404       .  A
C1284      C1289   1.506       .  S
C1285      C1286   1.408       .  A
C1285      H1290   1.083       .  S
C1286      C1287   1.422       .  A
C1287      C1288   1.403       .  A
C1287      C1291   1.509       .  S
C1288      H1292   1.085       .  S
C1289      H1299   1.111       .  S
C1289      H1300   1.110       .  S
C1289      H1301   1.110       .  S
C1291      H1302   1.110       .  S
C1291      H1303   1.110       .  S
C1291      H1304   1.111       .  S
C1305      C1306   1.400       .  A
C1305      C1310   1.406       .  A
C1305      H1315   1.085       .  S
C1306      C1311   1.482       .  S
C1306      C1307   1.409       .  A
C1307      C1308   1.402       .  A
C1307      C1312   1.506       .  S
C1308      C1309   1.406       .  A
C1308      H1313   1.084       .  S
C1309      C1310   1.420       .  A
C1310      C1314   1.508       .  S
C1311      C1316   1.409       .  A
C1311      C1320   1.399       .  A
C1312      H1328   1.110       .  S
C1312      H1329   1.110       .  S
C1312      H1330   1.111       .  S
C1314      H1325   1.109       .  S
C1314      H1326   1.111       .  S
C1314      H1327   1.110       .  S
C1316      C1317   1.403       .  A
C1316      C1321   1.507       .  S
C1317      C1318   1.408       .  A
C1317      H1322   1.082       .  S
C1318      C1319   1.422       .  A
C1319      C1320   1.406       .  A
C1319      C1323   1.508       .  S
C1320      H1324   1.084       .  S
C1321      H1331   1.111       .  S
C1321      H1332   1.110       .  S
C1321      H1333   1.110       .  S
C1323      H1334   1.111       .  S
C1323      H1335   1.110       .  S
C1323      H1336   1.110       .  S
C1337      C1338   1.401       .  A
C1337      C1342   1.404       .  A
C1337      H1347   1.085       .  S
C1338      C1343   1.481       .  S
C1338      C1339   1.410       .  A
C1339      C1340   1.402       .  A
C1339      C1344   1.507       .  S
C1340      C1341   1.405       .  A
C1340      H1345   1.084       .  S
C1341      C1342   1.418       .  A
C1342      C1346   1.507       .  S
C1343      C1348   1.410       .  A
C1343      C1352   1.400       .  A
C1344      H1360   1.110       .  S
C1344      H1361   1.110       .  S
C1344      H1362   1.111       .  S
C1346      H1357   1.110       .  S
C1346      H1358   1.111       .  S
C1346      H1359   1.107       .  S
C1348      C1349   1.402       .  A
C1348      C1353   1.508       .  S
C1349      C1350   1.406       .  A
C1349      H1354   1.084       .  S
C1350      C1351   1.420       .  A
C1351      C1352   1.406       .  A
C1351      C1355   1.507       .  S
C1352      H1356   1.084       .  S
C1353      H1363   1.111       .  S
C1353      H1364   1.110       .  S
C1353      H1365   1.110       .  S
C1355      H1366   1.111       .  S
C1355      H1367   1.110       .  S
C1355      H1368   1.110       .  S
C1369      C1370   1.401       .  A
C1369      C1374   1.408       .  A
C1369      H1379   1.084       .  S
C1370      C1375   1.484       .  S
C1370      C1371   1.409       .  A
C1371      C1372   1.403       .  A
C1371      C1376   1.507       .  S
C1372      C1373   1.408       .  A
C1372      H1377   1.083       .  S
C1373      C1374   1.422       .  A
C1374      C1378   1.507       .  S
C1375      C1380   1.409       .  A
C1375      C1384   1.400       .  A
C1376      H1392   1.110       .  S
C1376      H1393   1.110       .  S
C1376      H1394   1.111       .  S
C1378      H1389   1.110       .  S
C1378      H1390   1.111       .  S
C1378      H1391   1.110       .  S
C1380      C1381   1.404       .  A
C1380      C1385   1.507       .  S
C1381      C1382   1.408       .  A
C1381      H1386   1.084       .  S
C1382      C1383   1.421       .  A
C1383      C1384   1.406       .  A
C1383      C1387   1.507       .  S
C1384      H1388   1.084       .  S
C1385      H1395   1.111       .  S
C1385      H1396   1.110       .  S
C1385      H1397   1.110       .  S
C1387      H1398   1.111       .  S
C1387      H1399   1.110       .  S
C1387      H1400   1.110       .  S
C1401      C1402   1.401       .  A
C1401      C1406   1.404       .  A
C1401      H1411   1.084       .  S
C1402      C1407   1.481       .  S
C1402      C1403   1.410       .  A
C1403      C1404   1.403       .  A
C1403      C1408   1.507       .  S
C1404      C1405   1.406       .  A
C1404      H1409   1.084       .  S
C1405      C1406   1.416       .  A
C1406      C1410   1.507       .  S
C1407      C1412   1.410       .  A
C1407      C1416   1.400       .  A
C1408      H1424   1.110       .  S
C1408      H1425   1.110       .  S
C1408      H1426   1.111       .  S
C1410      H1421   1.110       .  S
C1410      H1422   1.111       .  S
C1410      H1423   1.107       .  S
C1412      C1413   1.403       .  A
C1412      C1417   1.507       .  S
C1413      C1414   1.406       .  A
C1413      H1418   1.084       .  S
C1414      C1415   1.419       .  A
C1415      C1416   1.404       .  A
C1415      C1419   1.508       .  S
C1416      H1420   1.085       .  S
C1417      H1427   1.111       .  S
C1417      H1428   1.110       .  S
C1417      H1429   1.110       .  S
C1419      H1430   1.111       .  S
C1419      H1431   1.105       .  S
C1419      H1432   1.110       .  S
C1433      C1434   1.400       .  A
C1433      C1438   1.403       .  A
C1433      H1443   1.084       .  S
C1434      C1439   1.484   1_556  S
C1434      C1435   1.411       .  A
C1435      C1436   1.407       .  A
C1435      C1440   1.506       .  S
C1436      C1437   1.405       .  A
C1436      H1441   1.084       .  S
C1437      C1438   1.418       .  A
C1438      C1442   1.509       .  S
C1439      C1444   1.410       .  A
C1439      C1448   1.402       .  A
C1440      H1456   1.110       .  S
C1440      H1457   1.109       .  S
C1440      H1458   1.111       .  S
C1442      H1453   1.110       .  S
C1442      H1454   1.111       .  S
C1442      H1455   1.107       .  S
C1444      C1445   1.402       .  A
C1444      C1449   1.507       .  S
C1445      C1446   1.405       .  A
C1445      H1450   1.084       .  S
C1446      C1447   1.421       .  A
C1447      C1448   1.408       .  A
C1447      C1451   1.508       .  S
C1448      H1452   1.084       .  S
C1449      H1459   1.111       .  S
C1449      H1460   1.110   1_554  S
C1449      H1461   1.109   1_554  S
C1451      H1462   1.111       .  S
C1451      H1463   1.104       .  S
C1451      H1464   1.110       .  S
C1465      C1466   1.401       .  A
C1465      C1470   1.402       .  A
C1465      H1475   1.084       .  S
C1466      C1471   1.482       .  S
C1466      C1467   1.412       .  A
C1467      C1468   1.405       .  A
C1467      C1472   1.507       .  S
C1468      C1469   1.404       .  A
C1468      H1473   1.084       .  S
C1469      C1470   1.416       .  A
C1470      C1474   1.508       .  S
C1471      C1476   1.410       .  A
C1471      C1480   1.401       .  A
C1472      H1488   1.110       .  S
C1472      H1489   1.110       .  S
C1472      H1490   1.111       .  S
C1474      H1485   1.110       .  S
C1474      H1486   1.111       .  S
C1474      H1487   1.107       .  S
C1476      C1477   1.401       .  A
C1476      C1481   1.507       .  S
C1477      C1478   1.406       .  A
C1477      H1482   1.084       .  S
C1478      C1479   1.419       .  A
C1479      C1480   1.405       .  A
C1479      C1483   1.507       .  S
C1480      H1484   1.084       .  S
C1481      H1491   1.111       .  S
C1481      H1492   1.110       .  S
C1481      H1493   1.110       .  S
C1483      H1494   1.110       .  S
C1483      H1495   1.110       .  S
C1483      H1496   1.111       .  S
C1497      C1498   1.401       .  A
C1497      C1502   1.406       .  A
C1497      H1507   1.084       .  S
C1498      C1503   1.481       .  S
C1498      C1499   1.409       .  A
C1499      C1500   1.401       .  A
C1499      C1504   1.507       .  S
C1500      C1501   1.404       .  A
C1500      H1505   1.084       .  S
C1501      C1502   1.420       .  A
C1502      C1506   1.508       .  S
C1503      C1508   1.409       .  A
C1503      C1512   1.400       .  A
C1504      H1520   1.110       .  S
C1504      H1521   1.111       .  S
C1504      H1522   1.111       .  S
C1506      H1517   1.110       .  S
C1506      H1518   1.111       .  S
C1506      H1519   1.105       .  S
C1508      C1509   1.403       .  A
C1508      C1513   1.506       .  S
C1509      C1510   1.406       .  A
C1509      H1514   1.084       .  S
C1510      C1511   1.420       .  A
C1511      C1512   1.404       .  A
C1511      C1515   1.508       .  S
C1512      H1516   1.084       .  S
C1513      H1523   1.111       .  S
C1513      H1524   1.110       .  S
C1513      H1525   1.110       .  S
C1515      H1526   1.111       .  S
C1515      H1527   1.106       .  S
C1515      H1528   1.110       .  S
C1529      C1530   1.399       .  A
C1529      C1534   1.400       .  A
C1529      H1539   1.085       .  S
C1530      C1535   1.478       .  S
C1530      C1531   1.410       .  A
C1531      C1532   1.405       .  A
C1531      C1536   1.506       .  S
C1532      C1533   1.405       .  A
C1532      H1537   1.083       .  S
C1533      C1534   1.417       .  A
C1534      C1538   1.509       .  S
C1535      C1540   1.408       .  A
C1535      C1544   1.399       .  A
C1536      H1552   1.110       .  S
C1536      H1553   1.110       .  S
C1536      H1554   1.111       .  S
C1538      H1549   1.110       .  S
C1538      H1550   1.111       .  S
C1538      H1551   1.107       .  S
C1540      C1541   1.402       .  A
C1540      C1545   1.507       .  S
C1541      C1542   1.408       .  A
C1541      H1546   1.084       .  S
C1542      C1543   1.421       .  A
C1543      C1544   1.404       .  A
C1543      C1547   1.508       .  S
C1544      H1548   1.084       .  S
C1545      H1555   1.111       .  S
C1545      H1556   1.110       .  S
C1545      H1557   1.110       .  S
C1547      H1558   1.111       .  S
C1547      H1559   1.110       .  S
C1547      H1560   1.110       .  S
C1561      C1562   1.401       .  A
C1561      C1566   1.403       .  A
C1561      H1571   1.084       .  S
C1562      C1567   1.480       .  S
C1562      C1563   1.410       .  A
C1563      C1564   1.402       .  A
C1563      C1568   1.507       .  S
C1564      C1565   1.404       .  A
C1564      H1569   1.084       .  S
C1565      C1566   1.417       .  A
C1566      C1570   1.507       .  S
C1567      C1572   1.409       .  A
C1567      C1576   1.400       .  A
C1568      H1584   1.110       .  S
C1568      H1585   1.111       .  S
C1568      H1586   1.111       .  S
C1570      H1581   1.110       .  S
C1570      H1582   1.111       .  S
C1570      H1583   1.107       .  S
C1572      C1573   1.401       .  A
C1572      C1577   1.508       .  S
C1573      C1574   1.407       .  A
C1573      H1578   1.084       .  S
C1574      C1575   1.422       .  A
C1575      C1576   1.406       .  A
C1575      C1579   1.507       .  S
C1576      H1580   1.084       .  S
C1577      H1587   1.111       .  S
C1577      H1588   1.110       .  S
C1577      H1589   1.110       .  S
C1579      H1590   1.111       .  S
C1579      H1591   1.110       .  S
C1579      H1592   1.110       .  S
C1593      C1594   1.402       .  A
C1593      C1598   1.406       .  A
C1593      H1603   1.084       .  S
C1594      C1599   1.480   1_556  S
C1594      C1595   1.409       .  A
C1595      C1596   1.400       .  A
C1595      C1600   1.507       .  S
C1596      C1597   1.404       .  A
C1596      H1601   1.084       .  S
C1597      C1598   1.419       .  A
C1598      C1602   1.508       .  S
C1599      C1604   1.410       .  A
C1599      C1608   1.400       .  A
C1600      H1616   1.110       .  S
C1600      H1617   1.110       .  S
C1600      H1618   1.111       .  S
C1602      H1613   1.110       .  S
C1602      H1614   1.111       .  S
C1602      H1615   1.105       .  S
C1604      C1605   1.404       .  A
C1604      C1609   1.505       .  S
C1605      C1606   1.404       .  A
C1605      H1610   1.084       .  S
C1606      C1607   1.418       .  A
C1607      C1608   1.402       .  A
C1607      C1611   1.509       .  S
C1608      H1612   1.085       .  S
C1609      H1619   1.111       .  S
C1609      H1620   1.110   1_554  S
C1609      H1621   1.110   1_554  S
C1611      H1622   1.111       .  S
C1611      H1623   1.106       .  S
C1611      H1624   1.110       .  S
C1625      C1626   1.399       .  A
C1625      C1630   1.404       .  A
C1625      H1635   1.084       .  S
C1626      C1631   1.481       .  S
C1626      C1627   1.409       .  A
C1627      C1628   1.404       .  A
C1627      C1632   1.507       .  S
C1628      C1629   1.408       .  A
C1628      H1633   1.083       .  S
C1629      C1630   1.422       .  A
C1630      C1634   1.509       .  S
C1631      C1636   1.409       .  A
C1631      C1640   1.398       .  A
C1632      H1648   1.110       .  S
C1632      H1649   1.109       .  S
C1632      H1650   1.111       .  S
C1634      H1645   1.110       .  S
C1634      H1646   1.111       .  S
C1634      H1647   1.110       .  S
C1636      C1637   1.405       .  A
C1636      C1641   1.508       .  S
C1637      C1638   1.408       .  A
C1637      H1642   1.083       .  S
C1638      C1639   1.421       .  A
C1639      C1640   1.405       .  A
C1639      C1643   1.507       .  S
C1640      H1644   1.085       .  S
C1641      H1651   1.111       .  S
C1641      H1652   1.110       .  S
C1641      H1653   1.109       .  S
C1643      H1654   1.110       .  S
C1643      H1655   1.110       .  S
C1643      H1656   1.111       .  S
C1657      C1658   1.401       .  A
C1657      C1662   1.405       .  A
C1657      H1667   1.084       .  S
C1658      C1663   1.481       .  S
C1658      C1659   1.409       .  A
C1659      C1660   1.402       .  A
C1659      C1664   1.507       .  S
C1660      C1661   1.406       .  A
C1660      H1665   1.084       .  S
C1661      C1662   1.419       .  A
C1662      C1666   1.508       .  S
C1663      C1668   1.408       .  A
C1663      C1672   1.400       .  A
C1664      H1680   1.110       .  S
C1664      H1681   1.110       .  S
C1664      H1682   1.111       .  S
C1666      H1677   1.110       .  S
C1666      H1678   1.111       .  S
C1666      H1679   1.106       .  S
C1668      C1669   1.400       .  A
C1668      C1673   1.508       .  S
C1669      C1670   1.408       .  A
C1669      H1674   1.084       .  S
C1670      C1671   1.422       .  A
C1671      C1672   1.407       .  A
C1671      C1675   1.508       .  S
C1672      H1676   1.084       .  S
C1673      H1683   1.111       .  S
C1673      H1684   1.110       .  S
C1673      H1685   1.110       .  S
C1675      H1686   1.111       .  S
C1675      H1687   1.104       .  S
C1675      H1688   1.110       .  S
C1689      C1690   1.400       .  A
C1689      C1694   1.405       .  A
C1689      H1699   1.084       .  S
C1690      C1695   1.478       .  S
C1690      C1691   1.409       .  A
C1691      C1692   1.400       .  A
C1691      C1696   1.507       .  S
C1692      C1693   1.405       .  A
C1692      H1697   1.084       .  S
C1693      C1694   1.419       .  A
C1694      C1698   1.508       .  S
C1695      C1700   1.409       .  A
C1695      C1704   1.399       .  A
C1696      H1712   1.110       .  S
C1696      H1713   1.110       .  S
C1696      H1714   1.111       .  S
C1698      H1709   1.110       .  S
C1698      H1710   1.111       .  S
C1698      H1711   1.105       .  S
C1700      C1701   1.404       .  A
C1700      C1705   1.506       .  S
C1701      C1702   1.405       .  A
C1701      H1706   1.084       .  S
C1702      C1703   1.418       .  A
C1703      C1704   1.401       .  A
C1703      C1707   1.508       .  S
C1704      H1708   1.085       .  S
C1705      H1715   1.111       .  S
C1705      H1716   1.110       .  S
C1705      H1717   1.110       .  S
C1707      H1718   1.111       .  S
C1707      H1719   1.107       .  S
C1707      H1720   1.110       .  S
C1721      C1722   1.401       .  A
C1721      C1726   1.402       .  A
C1721      H1731   1.084       .  S
C1722      C1727   1.477       .  S
C1722      C1723   1.409       .  A
C1723      C1724   1.401       .  A
C1723      C1728   1.507       .  S
C1724      C1725   1.404       .  A
C1724      H1729   1.084       .  S
C1725      C1726   1.416       .  A
C1726      C1730   1.509       .  S
C1727      C1732   1.408       .  A
C1727      C1736   1.399       .  A
C1728      H1744   1.110       .  S
C1728      H1745   1.110       .  S
C1728      H1746   1.111       .  S
C1730      H1741   1.111       .  S
C1730      H1742   1.110       .  S
C1730      H1743   1.106       .  S
C1732      C1733   1.401       .  A
C1732      C1737   1.508       .  S
C1733      C1734   1.406       .  A
C1733      H1738   1.084       .  S
C1734      C1735   1.420       .  A
C1735      C1736   1.406       .  A
C1735      C1739   1.507       .  S
C1736      H1740   1.084       .  S
C1737      H1747   1.111       .  S
C1737      H1748   1.110       .  S
C1737      H1749   1.110       .  S
C1739      H1750   1.110       .  S
C1739      H1751   1.110       .  S
C1739      H1752   1.111       .  S
C1753      C1754   1.401       .  A
C1753      C1758   1.408       .  A
C1753      H1763   1.084       .  S
C1754      C1759   1.481       .  S
C1754      C1755   1.409       .  A
C1755      C1756   1.399       .  A
C1755      C1760   1.508       .  S
C1756      C1757   1.407       .  A
C1756      H1761   1.084       .  S
C1757      C1758   1.420       .  A
C1758      C1762   1.507       .  S
C1759      C1764   1.410       .  A
C1759      C1768   1.401       .  A
C1760      H1776   1.110       .  S
C1760      H1777   1.110       .  S
C1760      H1778   1.111       .  S
C1762      H1773   1.110       .  S
C1762      H1774   1.111       .  S
C1762      H1775   1.110       .  S
C1764      C1765   1.402       .  A
C1764      C1769   1.507       .  S
C1765      C1766   1.406       .  A
C1765      H1770   1.084       .  S
C1766      C1767   1.417       .  A
C1767      C1768   1.403       .  A
C1767      C1771   1.507       .  S
C1768      H1772   1.085       .  S
C1769      H1779   1.111       .  S
C1769      H1780   1.110       .  S
C1769      H1781   1.110       .  S
C1771      H1782   1.111       .  S
C1771      H1783   1.107       .  S
C1771      H1784   1.110       .  S
C1785      C1786   1.400       .  A
C1785      C1790   1.402       .  A
C1785      H1795   1.084       .  S
C1786      C1791   1.476       .  S
C1786      C1787   1.409       .  A
C1787      C1788   1.400       .  A
C1787      C1792   1.507       .  S
C1788      C1789   1.404       .  A
C1788      H1793   1.084       .  S
C1789      C1790   1.417       .  A
C1790      C1794   1.508       .  S
C1791      C1796   1.408       .  A
C1791      C1800   1.399       .  A
C1792      H1808   1.110       .  S
C1792      H1809   1.110       .  S
C1792      H1810   1.111       .  S
C1794      H1805   1.110       .  S
C1794      H1806   1.111       .  S
C1794      H1807   1.106       .  S
C1796      C1797   1.400       .  A
C1796      C1801   1.508       .  S
C1797      C1798   1.408       .  A
C1797      H1802   1.083       .  S
C1798      C1799   1.421       .  A
C1799      C1800   1.405       .  A
C1799      C1803   1.507       .  S
C1800      H1804   1.084       .  S
C1801      H1811   1.111       .  S
C1801      H1812   1.110       .  S
C1801      H1813   1.110       .  S
C1803      H1814   1.111       .  S
C1803      H1815   1.110       .  S
C1803      H1816   1.110       .  S
C1817      C1818   1.399       .  A
C1817      C1822   1.403       .  A
C1817      H1827   1.084       .  S
C1818      C1823   1.476   1_554  S
C1818      C1819   1.409       .  A
C1819      C1820   1.400       .  A
C1819      C1824   1.507       .  S
C1820      C1821   1.405       .  A
C1820      H1825   1.084       .  S
C1821      C1822   1.420       .  A
C1822      C1826   1.509       .  S
C1823      C1828   1.409       .  A
C1823      C1832   1.400       .  A
C1824      H1840   1.110   1_554  S
C1824      H1841   1.110   1_554  S
C1824      H1842   1.111       .  S
C1826      H1837   1.111       .  S
C1826      H1838   1.110       .  S
C1826      H1839   1.103       .  S
C1828      C1829   1.399       .  A
C1828      C1833   1.507       .  S
C1829      C1830   1.404       .  A
C1829      H1834   1.085       .  S
C1830      C1831   1.419       .  A
C1831      C1832   1.404       .  A
C1831      C1835   1.508       .  S
C1832      H1836   1.084       .  S
C1833      H1843   1.111       .  S
C1833      H1844   1.110       .  S
C1833      H1845   1.110       .  S
C1835      H1846   1.110       .  S
C1835      H1847   1.104       .  S
C1835      H1848   1.111       .  S
