geometry optimzed in LAMMPS
_audit_creation_date              2020-11-30 
_audit_creation_method            'lammps2cif' 
_symmetry_space_group_name_H-M    'P1' 
_symmetry_Int_Tables_number       1 
_symmetry_cell_setting            triclinic 
loop_ 
_symmetry_equiv_pos_as_xyz 
  x,y,z 
_cell_length_a                    65.83164195 
_cell_length_b                    65.68646320704875 
_cell_length_c                    65.83876843516741 
_cell_angle_alpha                 90.00330321377565 
_cell_angle_beta                  89.87938708885929 
_cell_angle_gamma                 89.88662994007201 
loop_ 
_atom_site_label 
_atom_site_type_symbol 
_atom_site_fract_x 
_atom_site_fract_y 
_atom_site_fract_z 
_atom_site_charge 
O1          O  0.48921560  0.11428036  0.47179604    -0.72900
O2          O  0.52796554  0.11591149  0.52108756    -0.73900
O3          O  0.53299033  0.11380626  0.47671389    -0.62500
O4          O  0.48329751  0.11619576  0.51566441    -0.70900
O5          O  0.48343890  0.08249017  0.51511816    -0.70500
O6          O  0.53260377  0.08029136  0.48041236    -0.61700
O7          O  0.52554033  0.08232409  0.52245705    -0.74200
O8          O  0.49087903  0.08059072  0.47323074    -0.73000
Cu9        Cu  0.50839496  0.11643537  0.49635510     1.04600
Cu10       Cu  0.50809553  0.08048859  0.49792797     1.04300
C11         C  0.48463495  0.09677474  0.46454063     0.93300
C12         C  0.53271649  0.09891483  0.52948694     0.92400
C13         C  0.54037572  0.09619311  0.47249585     0.84600
C14         C  0.47523265  0.09915059  0.52078990     0.90800
O15         O  0.19726635  0.39898994  0.48307012    -0.72900
O16         O  0.19118537  0.44607499  0.52426077    -0.73900
O17         O  0.19439841  0.40152389  0.52766115    -0.62500
O18         O  0.19309251  0.44361347  0.47988440    -0.70900
O19         O  0.15990831  0.43843809  0.47908627    -0.70500
O20         O  0.16085846  0.40047722  0.52553307    -0.61700
O21         O  0.15786333  0.44266146  0.52121814    -0.74200
O22         O  0.16375526  0.39594029  0.48326812    -0.73000
Cu23       Cu  0.19539826  0.42260483  0.50374144     1.04600
Cu24       Cu  0.15971174  0.41925844  0.50217838     1.04300
C25         C  0.18113416  0.38990778  0.47705965     0.93300
C26         C  0.17312989  0.45183559  0.52884566     0.92400
C27         C  0.17718817  0.39494175  0.53425476     0.84600
C28         C  0.17553237  0.44764390  0.47231698     0.90800
O29         O  0.51531426  0.73098215  0.53137719    -0.72900
O30         O  0.47790407  0.73601344  0.48067834    -0.73900
O31         O  0.52142168  0.73121362  0.48743510    -0.62500
O32         O  0.47116679  0.73557424  0.52477510    -0.70900
O33         O  0.47417124  0.76912032  0.52305949    -0.70500
O34         O  0.52493304  0.76464292  0.49030907    -0.61700
O35         O  0.48345140  0.76925621  0.48128768    -0.74200
O36         O  0.51596060  0.76465721  0.53191635    -0.73000
Cu37       Cu  0.49626531  0.73209464  0.50608916     1.04600
Cu38       Cu  0.49969041  0.76787890  0.50671961     1.04300
C39         C  0.52152570  0.74764486  0.53946367     0.93300
C40         C  0.47552319  0.75375070  0.47278136     0.92400
C41         C  0.53122906  0.74758349  0.48345891     0.84600
C42         C  0.46453777  0.75342542  0.52917683     0.90800
O43         O  0.79945401  0.43876566  0.52272471    -0.72900
O44         O  0.80791378  0.39407581  0.47808247    -0.73900
O45         O  0.80399519  0.39418764  0.52244951    -0.62500
O46         O  0.80295911  0.43875728  0.47830907    -0.70900
O47         O  0.83633656  0.44115147  0.48179853    -0.70500
O48         O  0.83731716  0.39862157  0.52410823    -0.61700
O49         O  0.84101149  0.39863366  0.48167037    -0.74200
O50         O  0.83296538  0.44099834  0.52392117    -0.73000
Cu51       Cu  0.80219144  0.41623896  0.50027371     1.04600
Cu52       Cu  0.83780001  0.41987457  0.50295752     1.04300
C53         C  0.81556724  0.44715789  0.52988314     0.93300
C54         C  0.82627181  0.38957231  0.47300580     0.92400
C55         C  0.82126835  0.38968563  0.53021745     0.84600
C56         C  0.81988875  0.44716763  0.47354964     0.90800
O57         O  0.52617182  0.43180734  0.16023275    -0.72900
O58         O  0.47556636  0.39895699  0.15994331    -0.73900
O59         O  0.48426760  0.44057178  0.15949769    -0.62500
O60         O  0.51714742  0.38999893  0.16073903    -0.70900
O61         O  0.51836047  0.39032319  0.19439002    -0.70500
O62         O  0.48197842  0.44146243  0.19308577    -0.61700
O63         O  0.47465938  0.39807344  0.19359483    -0.74200
O64         O  0.52567065  0.43422981  0.19381665    -0.73000
Cu65       Cu  0.50087132  0.41536380  0.15912255     1.04600
Cu66       Cu  0.50021545  0.41606287  0.19507153     1.04300
C67         C  0.53397185  0.43839835  0.17667861     0.93300
C68         C  0.46699404  0.39324154  0.17636343     0.92400
C69         C  0.47735906  0.44879741  0.17565157     0.84600
C70         C  0.52282428  0.38187665  0.17737845     0.90800
O71         O  0.51280279  0.42658255  0.85050253    -0.72900
O72         O  0.46388745  0.39086177  0.85133778    -0.73900
O73         O  0.50614766  0.38380480  0.84904567    -0.62500
O74         O  0.47062659  0.43324908  0.85247214    -0.70900
O75         O  0.46722714  0.43442267  0.81902600    -0.70500
O76         O  0.50654240  0.38539979  0.81543279    -0.61700
O77         O  0.46208952  0.39007449  0.81778500    -0.74200
O78         O  0.51143137  0.42993957  0.81708683    -0.73000
Cu79       Cu  0.48845518  0.40854990  0.85180046     1.04600
Cu80       Cu  0.48681636  0.40996662  0.81599680     1.04300
C81         C  0.51966935  0.43451137  0.83417370     0.93300
C82         C  0.45504491  0.38475433  0.83522302     0.92400
C83         C  0.51199471  0.37663559  0.83196469     0.84600
C84         C  0.46318956  0.44169445  0.83666006     0.90800
O85         O  0.02722662  0.60941546  0.97954436    -0.72900
O86         O  0.98518151  0.61540883  0.02611896    -0.73900
O87         O  0.02944274  0.60986952  0.02427918    -0.62500
O88         O  0.98297891  0.61435711  0.98161257    -0.70900
O89         O  0.97953136  0.58094905  0.98432427    -0.70500
O90         O  0.02510995  0.57646996  0.02340071    -0.61700
O91         O  0.98300083  0.58177504  0.02702181    -0.74200
O92         O  0.02188732  0.57616139  0.98063042    -0.73000
Cu93       Cu  0.00639080  0.61361469  0.00284157     1.04600
Cu94       Cu  0.00229491  0.57790222  0.00382683     1.04300
C95         C  0.03074423  0.59148838  0.97262111     0.93300
C96         C  0.97783350  0.59915982  0.03405356     0.92400
C97         C  0.03425920  0.59196497  0.03056273     0.84600
C98         C  0.97386933  0.59782375  0.97658882     0.90800
O99         O  0.69574992  0.91144533  0.02545949    -0.72900
O100        O  0.69018944  0.94892944  0.97511359    -0.73900
O101        O  0.68893326  0.95471697  0.01919273    -0.62500
O102        O  0.69679282  0.90505523  0.98113291    -0.70900
O103        O  0.66352470  0.90043557  0.98301833    -0.70500
O104        O  0.65580320  0.94910871  0.01746764    -0.61700
O105        O  0.65723571  0.94223060  0.97563817    -0.74200
O106        O  0.66226965  0.90794198  0.02506514    -0.73000
Cu107      Cu  0.69429809  0.93017114  0.00013156     1.04600
Cu108      Cu  0.65880646  0.92470771  0.00018888     1.04300
C109        C  0.67934797  0.90470891  0.03359870     0.93300
C110        C  0.67231204  0.95161381  0.96783723     0.92400
C111        C  0.67067536  0.95940885  0.02428939     0.84600
C112        C  0.68087324  0.89482279  0.97644309     0.90800
O113        O  0.02590434  0.22644310  0.97482568    -0.72900
O114        O  0.98465310  0.23173944  0.02243635    -0.73900
O115        O  0.98206038  0.23051170  0.97791151    -0.62500
O116        O  0.02886520  0.22768694  0.01944022    -0.70900
O117        O  0.03154669  0.26120465  0.01672692    -0.70500
O118        O  0.98543409  0.26406199  0.97877303    -0.61700
O119        O  0.98936852  0.26507524  0.02101754    -0.74200
O120        O  0.02721748  0.26014661  0.97427384    -0.73000
Cu121      Cu  0.00530318  0.22769631  0.99876483     1.04600
Cu122      Cu  0.00852859  0.26353429  0.99772140     1.04300
C123        C  0.03221411  0.24301203  0.96662623     0.93300
C124        C  0.98067710  0.24971269  0.02906372     0.92400
C125        C  0.97662266  0.24826874  0.97187703     0.84600
C126        C  0.03750256  0.24444921  0.02443756     0.90800
O127        O  0.30563178  0.94133425  0.97801682    -0.72900
O128        O  0.30712963  0.89215189  0.01750089    -0.73900
O129        O  0.30465021  0.93639120  0.02227551    -0.62500
O130        O  0.30841869  0.89674221  0.97314145    -0.70900
O131        O  0.34174154  0.90100295  0.97432925    -0.70500
O132        O  0.33830230  0.93618702  0.02309317    -0.61700
O133        O  0.34068012  0.89424898  0.01624492    -0.74200
O134        O  0.33908061  0.94316528  0.98108115    -0.73000
Cu135      Cu  0.30505959  0.91661392  0.99763407     1.04600
Cu136      Cu  0.34086568  0.91873090  0.99866529     1.04300
C137        C  0.32251839  0.95017290  0.97387632     0.93300
C138        C  0.32467988  0.88548011  0.02278243     0.92400
C139        C  0.32138266  0.94185903  0.03065379     0.84600
C140        C  0.32624115  0.89282202  0.96613938     0.90800
O141        O  0.97027688  0.93615115  0.65150183    -0.72900
O142        O  0.01069803  0.89091236  0.65022489    -0.73900
O143        O  0.96823594  0.89303007  0.64978704    -0.62500
O144        O  0.01298887  0.93361986  0.65133607    -0.70900
O145        O  0.01366140  0.93415078  0.68492423    -0.70500
O146        O  0.96720966  0.89054501  0.68327151    -0.61700
O147        O  0.01181904  0.88933254  0.68379076    -0.74200
O148        O  0.96888706  0.93603866  0.68507334    -0.73000
Cu149      Cu  0.99049577  0.91352105  0.64983099     1.04600
Cu150      Cu  0.99030860  0.91252085  0.68565965     1.04300
C151        C  0.96326172  0.94363753  0.66800259     0.93300
C152        C  0.01767460  0.88274139  0.66637033     0.92400
C153        C  0.96099353  0.88464299  0.66569108     0.84600
C154        C  0.02073715  0.94030765  0.66776184     0.90800
O155        O  0.97929202  0.89720118  0.29993839    -0.72900
O156        O  0.02453350  0.94054766  0.29958956    -0.73900
O157        O  0.02330782  0.89543391  0.29953010    -0.62500
O158        O  0.98051855  0.94192076  0.30073180    -0.70900
O159        O  0.98281104  0.94061792  0.33427955    -0.70500
O160        O  0.02235291  0.89574962  0.33319035    -0.61700
O161        O  0.02479431  0.93858038  0.33318519    -0.74200
O162        O  0.98044044  0.89801877  0.33357398    -0.73000
Cu163      Cu  0.00194248  0.91878568  0.29853989     1.04600
Cu164      Cu  0.00264829  0.91824353  0.33446893     1.04300
C165        C  0.97307655  0.89071674  0.31722448     0.93300
C166        C  0.03126456  0.94668085  0.31679090     0.92400
C167        C  0.02866146  0.88784168  0.31670741     0.84600
C168        C  0.97553774  0.94876143  0.31833242     0.90800
N169        N  0.60790533  0.81285698  0.59777243    -0.27300
N170        N  0.58863294  0.81493231  0.59295248    -0.35100
C171        C  0.58420762  0.83480776  0.59118928     0.01100
C172        C  0.60151764  0.84585840  0.59579586     0.07100
C173        C  0.61624747  0.83135617  0.60000969    -0.06000
H174        H  0.56944725  0.84073993  0.58706570     0.07800
H175        H  0.63174156  0.83401382  0.60475493     0.09000
Cu176      Cu  0.57019326  0.78990896  0.59012666     0.44200
Cu177      Cu  0.62019562  0.78444295  0.60199793     0.42000
Cu178      Cu  0.58798993  0.73811388  0.59719461     0.43900
N179        N  0.55508064  0.76489202  0.57937991    -0.34600
N180        N  0.56150307  0.74580207  0.57939406    -0.28900
C181        C  0.54962477  0.73531366  0.56597551    -0.05000
C182        C  0.53529522  0.74876015  0.55748472     0.07200
C183        C  0.53939301  0.76707105  0.56675951     0.01000
H184        H  0.55210437  0.71960427  0.56164471     0.08700
H185        H  0.53270565  0.78160444  0.56309413     0.07700
N186        N  0.61517292  0.74044602  0.61548794    -0.36100
N187        N  0.62663632  0.75702906  0.61544619    -0.28300
C188        C  0.64204438  0.75497601  0.62859238    -0.03500
C189        C  0.64065883  0.73630709  0.63783323     0.05100
C190        C  0.62339850  0.72733697  0.62922974     0.03200
H191        H  0.65290015  0.76676330  0.63197926     0.08300
H192        H  0.61703861  0.71266085  0.63313599     0.07100
N193        N  0.61491606  0.03124650  0.59050069    -0.27300
N194        N  0.59496670  0.03051036  0.58897896    -0.35100
C195        C  0.58889190  0.01103228  0.58955193     0.01100
C196        C  0.60592253  0.99885736  0.59150907     0.07100
C197        C  0.62221063  0.01217532  0.59210036    -0.06000
H198        H  0.57324774  0.00610865  0.58851512     0.07800
H199        H  0.63809267  0.00831139  0.59378052     0.09000
Cu200      Cu  0.57768139  0.05623948  0.58471642     0.44200
Cu201      Cu  0.62976926  0.05880108  0.59257954     0.42000
Cu202      Cu  0.59890795  0.10606085  0.58709151     0.43900
N203        N  0.56456109  0.08085553  0.57063735    -0.34600
N204        N  0.57229191  0.09937817  0.56959610    -0.28900
C205        C  0.56146435  0.10994985  0.55542052    -0.05000
C206        C  0.54644560  0.09714137  0.54740254     0.07200
C207        C  0.54905988  0.07905069  0.55768464     0.01000
H208        H  0.56503731  0.12519693  0.55039324     0.08700
H209        H  0.54124704  0.06492478  0.55480179     0.07700
N210        N  0.62553501  0.10308115  0.60569286    -0.36100
N211        N  0.63677095  0.08630481  0.60600723    -0.28300
C212        C  0.65174763  0.08824798  0.61968646    -0.03500
C213        C  0.65022518  0.10703003  0.62886059     0.05100
C214        C  0.63335101  0.11612192  0.61964862     0.03200
H215        H  0.66229015  0.07624479  0.62362152     0.08300
H216        H  0.62692372  0.13081341  0.62330704     0.07100
N217        N  0.88343794  0.52013626  0.60136733    -0.27300
N218        N  0.88246515  0.51471335  0.58215277    -0.35100
C219        C  0.90127750  0.51426046  0.57422628     0.01100
C220        C  0.91478866  0.51984743  0.58928681     0.07100
C221        C  0.90295579  0.52346935  0.60635878    -0.06000
H222        H  0.90483468  0.51038084  0.55865426     0.07800
H223        H  0.90809989  0.52849857  0.62112488     0.09000
Cu224      Cu  0.85498591  0.50761948  0.56925451     0.44200
Cu225      Cu  0.85691940  0.52374827  0.61770264     0.42000
Cu226      Cu  0.80708731  0.50568582  0.59662749     0.43900
N227        N  0.83054251  0.49069166  0.56005527    -0.34600
N228        N  0.81324588  0.48758407  0.56981240    -0.28900
C229        C  0.80356686  0.47186545  0.56017966    -0.05000
C230        C  0.81574586  0.46513835  0.54387197     0.07200
C231        C  0.83238455  0.47774748  0.54455873     0.01000
H232        H  0.78948094  0.46510019  0.56528648     0.08700
H233        H  0.84576610  0.47667274  0.53523255     0.07700
N234        N  0.81063424  0.52752858  0.62106182    -0.36100
N235        N  0.82873225  0.53304901  0.62794976    -0.28300
C236        C  0.82666591  0.54727346  0.64244045    -0.03500
C237        C  0.80635951  0.55126660  0.64548890     0.05100
C238        C  0.79648999  0.53848992  0.63156003     0.03200
H239        H  0.83924485  0.55445350  0.65013424     0.08300
H240        H  0.78032395  0.53733778  0.62927539     0.07100
N241        N  0.09836744  0.54066167  0.58262224    -0.27300
N242        N  0.09773222  0.52442923  0.57094636    -0.35100
C243        C  0.07837776  0.52046940  0.56596720     0.01100
C244        C  0.06619244  0.53504047  0.57504649     0.07100
C245        C  0.07938663  0.54769493  0.58547320    -0.06000
H246        H  0.07344048  0.50728034  0.55747090     0.07800
H247        H  0.07537764  0.56020159  0.59540892     0.09000
Cu248      Cu  0.12368045  0.50812070  0.56516648     0.44200
Cu249      Cu  0.12543699  0.54890113  0.59578575     0.42000
Cu250      Cu  0.17390933  0.51924506  0.58594394     0.43900
N251        N  0.14954525  0.49229565  0.55795727    -0.34600
N252        N  0.16829741  0.49557582  0.56434178    -0.28900
C253        C  0.18058916  0.48166848  0.55502490    -0.05000
C254        C  0.16861905  0.46929994  0.54250097     0.07200
C255        C  0.14923343  0.47670404  0.54499002     0.01000
H256        H  0.19682685  0.48052796  0.55726609     0.08700
H257        H  0.13561345  0.47121916  0.53768178     0.07700
N258        N  0.17018271  0.54342718  0.60748923    -0.36100
N259        N  0.15274910  0.55321376  0.61031277    -0.28300
C260        C  0.15480627  0.56711772  0.62504040    -0.03500
C261        C  0.17443184  0.56662541  0.63207281     0.05100
C262        C  0.18388359  0.55133732  0.62068830     0.03200
H263        H  0.14273853  0.57691899  0.63031272     0.08300
H264        H  0.19955178  0.54638083  0.62193228     0.07100
N265        N  0.61600225  0.49265872  0.89492610    -0.27300
N266        N  0.59888110  0.48315690  0.89900795    -0.35100
C267        C  0.59776409  0.47952796  0.91906711     0.01100
C268        C  0.61510262  0.48722305  0.92810502     0.07100
C269        C  0.62638802  0.49545080  0.91230156    -0.06000
H270        H  0.58500699  0.47241380  0.92661084     0.07800
H271        H  0.64069340  0.50343209  0.91344337     0.09000
Cu272      Cu  0.57837824  0.47677473  0.87624774     0.44200
Cu273      Cu  0.62187630  0.50247937  0.86568520     0.42000
Cu274      Cu  0.58469982  0.49414938  0.82344730     0.43900
N275        N  0.56055755  0.46710395  0.85240102    -0.34600
N276        N  0.56198727  0.47238050  0.83303242    -0.28900
C277        C  0.54764004  0.46156644  0.82266224    -0.05000
C278        C  0.53703598  0.44906006  0.83635822     0.07200
C279        C  0.54585672  0.45327384  0.85485493     0.01000
H280        H  0.54508074  0.46267863  0.80646172     0.08700
H281        H  0.54190495  0.44660821  0.86933083     0.07700
N282        N  0.61066600  0.51430488  0.82210033    -0.36100
N283        N  0.62373987  0.51584906  0.83733803    -0.28300
C284        C  0.63812450  0.52958278  0.83284826    -0.03500
C285        C  0.63441540  0.53757044  0.81391962     0.05100
C286        C  0.61676354  0.52760365  0.80742324     0.03200
H287        H  0.64996999  0.53420684  0.84316219     0.08300
H288        H  0.60866106  0.53033893  0.79338318     0.07100
N289        N  0.62700313  0.49788034  0.11335721    -0.27300
N290        N  0.61643273  0.48092018  0.11225666    -0.35100
C291        C  0.61540988  0.47489318  0.09278650     0.01100
C292        C  0.62565011  0.48896921  0.08091523     0.07100
C293        C  0.63291889  0.50334371  0.09451996    -0.06000
H294        H  0.60651601  0.46214197  0.08747116     0.07800
H295        H  0.64067359  0.51736676  0.09085418     0.09000
Cu296      Cu  0.60042023  0.47033032  0.13709296     0.44200
Cu297      Cu  0.62951340  0.51278856  0.14092957     0.42000
Cu298      Cu  0.59669081  0.49828139  0.18542957     0.43900
N299        N  0.57984553  0.46390945  0.15993562    -0.34600
N300        N  0.57766020  0.47350437  0.17749405    -0.28900
C301        C  0.56130999  0.46544137  0.18721252    -0.05000
C302        C  0.55295120  0.45035386  0.17488834     0.07200
C303        C  0.56518364  0.44998589  0.15789004     0.01000
H304        H  0.55538217  0.47080642  0.20158756     0.08700
H305        H  0.56315794  0.44070941  0.14454706     0.07700
N306        N  0.61882643  0.52173587  0.18547546    -0.36100
N307        N  0.63044609  0.52587579  0.16952907    -0.28300
C308        C  0.64274791  0.54146339  0.17393042    -0.03500
C309        C  0.63876510  0.54804364  0.19340044     0.05100
C310        C  0.62353552  0.53510658  0.20044434     0.03200
H311        H  0.65338275  0.54813273  0.16330408     0.08300
H312        H  0.61602070  0.53580361  0.21503398     0.07100
N313        N  0.88305566  0.53090704  0.40167805    -0.27300
N314        N  0.88490012  0.52030944  0.41854790    -0.35100
C315        C  0.90464838  0.51806960  0.42304917     0.01100
C316        C  0.91594470  0.52768040  0.40815262     0.07100
C317        C  0.90173880  0.53576028  0.39479711    -0.06000
H318        H  0.91038348  0.50953633  0.43587043     0.07800
H319        H  0.90476783  0.54401250  0.38092518     0.09000
Cu320      Cu  0.86005176  0.50754450  0.43244069     0.44200
Cu321      Cu  0.85428650  0.53631096  0.39000779     0.42000
Cu322      Cu  0.80875954  0.50857361  0.41168269     0.43900
N323        N  0.83674127  0.48938323  0.44243599    -0.34600
N324        N  0.81797501  0.48853963  0.43535114    -0.28900
C325        C  0.80811461  0.47334888  0.44538865    -0.05000
C326        C  0.82164639  0.46441460  0.45911169     0.07200
C327        C  0.83941835  0.47514888  0.45664899     0.01000
H328        H  0.79254603  0.46890244  0.44265749     0.08700
H329        H  0.85360666  0.47256847  0.46442891     0.07700
N330        N  0.80777701  0.53147366  0.38877539    -0.36100
N331        N  0.82417606  0.54088371  0.38175370    -0.28300
C332        C  0.81869905  0.55454118  0.36765014    -0.03500
C333        C  0.79792579  0.55395859  0.36521534     0.05100
C334        C  0.79136441  0.53916356  0.37893017     0.03200
H335        H  0.82923514  0.56419479  0.35951288     0.08300
H336        H  0.77591805  0.53421925  0.38135953     0.07100
N337        N  0.10145781  0.52913772  0.40808510    -0.27300
N338        N  0.09985503  0.51295348  0.41974742    -0.35100
C339        C  0.08011928  0.50980551  0.42412432     0.01100
C340        C  0.06884502  0.52489658  0.41462509     0.07100
C341        C  0.08290976  0.53692996  0.40464629    -0.06000
H342        H  0.07436088  0.49711238  0.43282568     0.07800
H343        H  0.07981237  0.54980740  0.39489327     0.09000
Cu344      Cu  0.12571580  0.49675730  0.42724959     0.44200
Cu345      Cu  0.12918261  0.53743879  0.39644706     0.42000
Cu346      Cu  0.17777525  0.51260376  0.41173284     0.43900
N347        N  0.15236736  0.48338970  0.43711313    -0.34600
N348        N  0.17140149  0.48860699  0.43314660    -0.28900
C349        C  0.18368853  0.47652169  0.44477567    -0.05000
C350        C  0.17152775  0.46322738  0.45623282     0.07200
C351        C  0.15199169  0.46828233  0.45065613     0.01000
H352        H  0.20009036  0.47750042  0.44511334     0.08700
H353        H  0.13811229  0.46182826  0.45664590     0.07700
N354        N  0.17498029  0.53656922  0.38949222    -0.36100
N355        N  0.15712482  0.54437963  0.38439849    -0.28300
C356        C  0.15950583  0.55874825  0.37014089    -0.03500
C357        C  0.17985486  0.56086733  0.36583648     0.05100
C358        C  0.18934006  0.54639245  0.37831656     0.03200
H359        H  0.14717697  0.56729032  0.36353903     0.08300
H360        H  0.20552247  0.54346293  0.37934248     0.07100
N361        N  0.62110253  0.80641454  0.42005590    -0.27300
N362        N  0.61304699  0.80758366  0.43834633    -0.35100
C363        C  0.61236162  0.82719104  0.44411906     0.01100
C364        C  0.62034142  0.83885600  0.42851835     0.07100
C365        C  0.62578553  0.82516963  0.41352338    -0.06000
H366        H  0.60540273  0.83263657  0.45800403     0.07800
H367        H  0.63155859  0.82867403  0.39853377     0.09000
Cu368      Cu  0.59955850  0.78258332  0.45145434     0.44200
Cu369      Cu  0.62232826  0.77941107  0.40455883     0.42000
Cu370      Cu  0.59177757  0.73572136  0.42153324     0.43900
N371        N  0.57834544  0.76058577  0.45813719    -0.34600
N372        N  0.57423002  0.74395967  0.44754770    -0.28900
C373        C  0.55711032  0.73552450  0.45548509    -0.05000
C374        C  0.55035154  0.74770677  0.47153553     0.07200
C375        C  0.56429445  0.76325055  0.47260699     0.01000
H376        H  0.54950520  0.72233624  0.44930589     0.08700
H377        H  0.56363893  0.77632222  0.48247820     0.07700
N378        N  0.61295158  0.73488838  0.39696843    -0.36100
N379        N  0.62333937  0.75119003  0.39130900    -0.28300
C380        C  0.63587156  0.74648147  0.37594627    -0.03500
C381        C  0.63360733  0.72621414  0.37140508     0.05100
C382        C  0.61897397  0.71914019  0.38503577     0.03200
H383        H  0.64635364  0.75702333  0.36891752     0.08300
H384        H  0.61344546  0.70372528  0.38637118     0.07100
N385        N  0.61453801  0.02224727  0.40116611    -0.27300
N386        N  0.60559522  0.02259276  0.41905934    -0.35100
C387        C  0.60447616  0.00358941  0.42638957     0.01100
C388        C  0.61359798  0.99066109  0.41251573     0.07100
C389        C  0.61985881  0.00301696  0.39666145    -0.06000
H390        H  0.59754304  0.99951106  0.44073032     0.07800
H391        H  0.62772787  0.99841087  0.38295496     0.09000
Cu392      Cu  0.59562424  0.04928545  0.43176492     0.44200
Cu393      Cu  0.61830158  0.04866033  0.38500311     0.42000
Cu394      Cu  0.59775122  0.09787421  0.40578945     0.43900
N395        N  0.58075812  0.07485718  0.44168557    -0.34600
N396        N  0.57990922  0.09273280  0.43248267    -0.28900
C397        C  0.56595836  0.10433749  0.44253993    -0.05000
C398        C  0.55795464  0.09291619  0.45864198     0.07200
C399        C  0.56790026  0.07450191  0.45739298     0.01000
H400        H  0.56121764  0.11941790  0.43788840     0.08700
H401        H  0.56508917  0.06115881  0.46657990     0.07700
N402        N  0.61816139  0.09488556  0.38060612    -0.36100
N403        N  0.62445608  0.07703559  0.37353591    -0.28300
C404        C  0.63791759  0.07981814  0.35851177    -0.03500
C405        C  0.64062304  0.10032820  0.35569091     0.05100
C406        C  0.62786381  0.10960352  0.36988930     0.03200
H407        H  0.64590864  0.06770223  0.35082855     0.08300
H408        H  0.62635590  0.12580677  0.37270192     0.07100
N409        N  0.88800083  0.31140230  0.60495446    -0.27300
N410        N  0.88958425  0.32934442  0.59620903    -0.35100
C411        C  0.90905114  0.33529136  0.59645358     0.01100
C412        C  0.92030039  0.32039838  0.60614852     0.07100
C413        C  0.90642804  0.30545133  0.61145725    -0.06000
H414        H  0.91466866  0.34919455  0.58966914     0.07800
H415        H  0.90952947  0.29120428  0.61910506     0.09000
Cu416      Cu  0.86475375  0.34360492  0.58401091     0.44200
Cu417      Cu  0.86027781  0.29700081  0.60611044     0.42000
Cu418      Cu  0.81345138  0.32312229  0.58631185     0.43900
N419        N  0.84042899  0.35553850  0.56872363    -0.34600
N420        N  0.82157718  0.34863448  0.56847550    -0.28900
C421        C  0.81085568  0.35996548  0.55493202    -0.05000
C422        C  0.82390092  0.37440836  0.54648325     0.07200
C423        C  0.84230685  0.37101193  0.55575152     0.01000
H424        H  0.79507904  0.35748858  0.55108250     0.08700
H425        H  0.85641880  0.37882907  0.55279575     0.07700
N426        N  0.81391248  0.29691094  0.60503817    -0.36100
N427        N  0.83083294  0.28740271  0.61049045    -0.28300
C428        C  0.82634591  0.27207336  0.62311549    -0.03500
C429        C  0.80570661  0.27174891  0.62619689     0.05100
C430        C  0.79816296  0.28777619  0.61462019     0.03200
H431        H  0.83754518  0.26304989  0.63108278     0.08300
H432        H  0.78263187  0.29317848  0.61425528     0.07100
N433        N  0.10460444  0.31978543  0.60129934    -0.27300
N434        N  0.10396790  0.33947447  0.59747320    -0.35100
C435        C  0.08445175  0.34568080  0.59804018     0.01100
C436        C  0.07245650  0.32893414  0.60262292     0.07100
C437        C  0.08575346  0.31281582  0.60453826    -0.06000
H438        H  0.07935657  0.36107074  0.59510889     0.07800
H439        H  0.08200928  0.29715014  0.60792353     0.09000
Cu440      Cu  0.13045494  0.35511285  0.59037117     0.44200
Cu441      Cu  0.13130854  0.30392346  0.60263274     0.42000
Cu442      Cu  0.17974200  0.32772656  0.59067202     0.43900
N443        N  0.15668790  0.36503841  0.57582696    -0.34600
N444        N  0.17430218  0.35535150  0.57428490    -0.28900
C445        C  0.18573550  0.36519614  0.56005585    -0.05000
C446        C  0.17458351  0.38168504  0.55247952     0.07200
C447        C  0.15647941  0.38090858  0.56308550     0.01000
H448        H  0.20032919  0.35991101  0.55458337     0.08700
H449        H  0.14330083  0.39032181  0.56050851     0.07700
N450        N  0.17660525  0.30057831  0.60838842    -0.36100
N451        N  0.15864854  0.29208302  0.61146855    -0.28300
C452        C  0.16047937  0.27597850  0.62385428    -0.03500
C453        C  0.18056012  0.27381730  0.62916094     0.05100
C454        C  0.19048177  0.28973582  0.61912574     0.03200
H455        H  0.14786097  0.26713454  0.62951154     0.08300
H456        H  0.20645094  0.29349852  0.62014711     0.07100
N457        N  0.37778791  0.82746189  0.58318642    -0.27300
N458        N  0.38686045  0.82639656  0.56535317    -0.35100
C459        C  0.38632294  0.84483391  0.55646330     0.01100
C460        C  0.37623976  0.85802963  0.56942727     0.07100
C461        C  0.37103640  0.84653301  0.58621832    -0.06000
H462        H  0.39302160  0.84843370  0.54187920     0.07800
H463        H  0.36316869  0.85170146  0.59971237     0.09000
Cu464      Cu  0.40038704  0.79968294  0.55591459     0.44200
Cu465      Cu  0.37549645  0.80236363  0.60180246     0.42000
Cu466      Cu  0.39921850  0.75339340  0.58803485     0.43900
N467        N  0.41884170  0.77461970  0.55178856    -0.34600
N468        N  0.41957183  0.75782663  0.56291464    -0.28900
C469        C  0.43558574  0.74649834  0.55616280    -0.05000
C470        C  0.44520577  0.75701149  0.54036025     0.07200
C471        C  0.43399912  0.77458769  0.53821541     0.01000
H472        H  0.44053767  0.73232477  0.56294097     0.08700
H473        H  0.43717423  0.78702071  0.52804363     0.07700
N474        N  0.37741237  0.75730853  0.61202642    -0.36100
N475        N  0.36991310  0.77542422  0.61681692    -0.28300
C476        C  0.35639875  0.77362380  0.63201411    -0.03500
C477        C  0.35490958  0.75343870  0.63741407     0.05100
C478        C  0.36841469  0.74339407  0.62435269     0.03200
H479        H  0.34765570  0.78613966  0.63822064     0.08300
H480        H  0.37118268  0.72717840  0.62369492     0.07100
N481        N  0.36644170  0.04204156  0.55506263    -0.27300
N482        N  0.38510390  0.03722660  0.54961839    -0.35100
C483        C  0.38654266  0.01695386  0.54747960     0.01100
C484        C  0.36780725  0.00858661  0.55196768     0.07100
C485        C  0.35536498  0.02492905  0.55675078    -0.06000
H486        H  0.40046283  0.00881581  0.54415950     0.07800
H487        H  0.33989216  0.02431415  0.56231235     0.09000
Cu488      Cu  0.40755718  0.05891535  0.54832508     0.44200
Cu489      Cu  0.35974387  0.07137775  0.56387352     0.42000
Cu490      Cu  0.40195637  0.10955577  0.56939542     0.43900
N491        N  0.42854962  0.08172161  0.54442997    -0.34600
N492        N  0.42730554  0.10074470  0.55090605    -0.28900
C493        C  0.44388489  0.11090200  0.54367258    -0.05000
C494        C  0.45588088  0.09726475  0.53243566     0.07200
C495        C  0.44544477  0.07914184  0.53348229     0.01000
H496        H  0.44700696  0.12683388  0.54639016     0.08700
H497        H  0.44963336  0.06492874  0.52632677     0.07700
N498        N  0.37393582  0.10957153  0.58609077    -0.36100
N499        N  0.35896934  0.09656585  0.58248638    -0.28300
C500        C  0.34387141  0.09945354  0.59589501    -0.03500
C501        C  0.34919210  0.11486206  0.60893281     0.05100
C502        C  0.36843188  0.12099754  0.60239025     0.03200
H503        H  0.33050959  0.08993571  0.59698816     0.08300
H504        H  0.37798104  0.13232398  0.60946693     0.07100
N505        N  0.56441586  0.28537167  0.89557368    -0.27300
N506        N  0.54578005  0.29212135  0.89275321    -0.35100
C507        C  0.53594484  0.29264631  0.91064628     0.01100
C508        C  0.54916892  0.28589037  0.92548848     0.07100
C509        C  0.56708219  0.28132661  0.91539569    -0.06000
H510        H  0.52087151  0.29885620  0.91288596     0.07800
H511        H  0.58131005  0.27662461  0.92213237     0.09000
Cu512      Cu  0.53746840  0.30492976  0.86558647     0.44200
Cu513      Cu  0.58501873  0.28483315  0.87191594     0.42000
Cu514      Cu  0.57487941  0.31500611  0.82551041     0.43900
N515        N  0.53464135  0.32787825  0.84461940    -0.34600
N516        N  0.54782878  0.33296317  0.83028502    -0.28900
C517        C  0.54143199  0.35095288  0.82213078    -0.05000
C518        C  0.52368966  0.35720937  0.83220050     0.07200
C519        C  0.52014787  0.34211323  0.84621956     0.01000
H520        H  0.54969972  0.35947240  0.81074806     0.08700
H521        H  0.50841040  0.34201450  0.85765607     0.07700
N522        N  0.59914039  0.29308959  0.82854343    -0.36100
N523        N  0.60206024  0.28280538  0.84561749    -0.28300
C524        C  0.61770806  0.26985652  0.84340878    -0.03500
C525        C  0.62563404  0.27175507  0.82410733     0.05100
C526        C  0.61338306  0.28664488  0.81496483     0.03200
H527        H  0.62287118  0.25953530  0.85510486     0.08300
H528        H  0.61478140  0.29232210  0.79958144     0.07100
N529        N  0.56861582  0.28877025  0.10746345    -0.27300
N530        N  0.55173076  0.29929283  0.10976188    -0.35100
C531        C  0.54232639  0.30097885  0.09175061     0.01100
C532        C  0.55392216  0.29080852  0.07744685     0.07100
C533        C  0.57044404  0.28313189  0.08794723    -0.06000
H534        H  0.52886438  0.30998504  0.08904528     0.07800
H535        H  0.58339626  0.27516983  0.08164433     0.09000
Cu536      Cu  0.54529027  0.31339430  0.13679216     0.44200
Cu537      Cu  0.58897595  0.28615415  0.13096191     0.42000
Cu538      Cu  0.58166117  0.31685552  0.17841269     0.43900
N539        N  0.54292194  0.33367358  0.16032081    -0.34600
N540        N  0.55590832  0.33645242  0.17537401    -0.28900
C541        C  0.55025829  0.35370826  0.18539975    -0.05000
C542        C  0.53311543  0.36185510  0.17582051     0.07200
C543        C  0.52913149  0.34860150  0.16018287     0.01000
H544        H  0.55876346  0.36057028  0.19766983     0.08700
H545        H  0.51777709  0.35043008  0.14854821     0.07700
N546        N  0.60486214  0.29452343  0.17365409    -0.36100
N547        N  0.60716525  0.28453263  0.15629847    -0.28300
C548        C  0.62276456  0.27147649  0.15774140    -0.03500
C549        C  0.63081583  0.27266075  0.17697583     0.05100
C550        C  0.61918291  0.28756808  0.18672638     0.03200
H551        H  0.62755713  0.26134297  0.14568826     0.08300
H552        H  0.62073006  0.29258610  0.20229259     0.07100
N553        N  0.41547091  0.54276203  0.90036901    -0.27300
N554        N  0.42974709  0.52876883  0.90177579    -0.35100
C555        C  0.43808678  0.52953430  0.92034862     0.01100
C556        C  0.42855112  0.54489896  0.93111289     0.07100
C557        C  0.41420926  0.55295058  0.91804130    -0.06000
H558        H  0.44914352  0.51878918  0.92607265     0.07800
H559        H  0.40280663  0.56429625  0.92158528     0.09000
Cu560      Cu  0.43426888  0.50798944  0.87888635     0.44200
Cu561      Cu  0.39752592  0.54433899  0.87485296     0.42000
Cu562      Cu  0.40520774  0.50830470  0.83134425     0.43900
N563        N  0.43805322  0.48704086  0.85600934    -0.34600
N564        N  0.42853371  0.48643398  0.83832342    -0.28900
C565        C  0.43606659  0.47020546  0.82779270    -0.05000
C566        C  0.45066704  0.46034876  0.83976856     0.07200
C567        C  0.45125965  0.47160351  0.85737941     0.01000
H568        H  0.43102995  0.46564352  0.81283746     0.08700
H569        H  0.46074675  0.46879728  0.87044899     0.07700
N570        N  0.38339955  0.53275738  0.83219026    -0.36100
N571        N  0.38119708  0.54482801  0.84820811    -0.28300
C572        C  0.36693600  0.55894195  0.84451677    -0.03500
C573        C  0.35943340  0.55608413  0.82528556     0.05100
C574        C  0.37020185  0.53932839  0.81772574     0.03200
H575        H  0.36272190  0.57090978  0.85498577     0.08300
H576        H  0.36885011  0.53277239  0.80271657     0.07100
N577        N  0.42886620  0.54902202  0.11556767    -0.27300
N578        N  0.43464106  0.53036247  0.11104542    -0.35100
C579        C  0.43805840  0.52900858  0.09100474     0.01100
C580        C  0.43421779  0.54785295  0.08244485     0.07100
C581        C  0.42841163  0.56024724  0.09848572    -0.06000
H582        H  0.44256580  0.51522999  0.08317758     0.07800
H583        H  0.42365283  0.57600673  0.09772462     0.09000
Cu584      Cu  0.43740008  0.50850121  0.13312077     0.44200
Cu585      Cu  0.41981147  0.55590510  0.14473792     0.42000
Cu586      Cu  0.42258847  0.51653960  0.18581279     0.43900
N587        N  0.44654021  0.49037849  0.15678078    -0.34600
N588        N  0.44224739  0.49275617  0.17627162    -0.28900
C589        C  0.45261869  0.47830667  0.18681780    -0.05000
C590        C  0.46383583  0.46663203  0.17304223     0.07200
C591        C  0.45942161  0.47484174  0.15433314     0.01000
H592        H  0.45207851  0.47645803  0.20314892     0.08700
H593        H  0.46536492  0.47002958  0.13982654     0.07700
N594        N  0.40370528  0.54278719  0.18626973    -0.36100
N595        N  0.40383243  0.55672383  0.17168942    -0.28300
C596        C  0.38977674  0.57098536  0.17563014    -0.03500
C597        C  0.38009555  0.56609106  0.19346177     0.05100
C598        C  0.38921162  0.54809284  0.19993625     0.03200
H599        H  0.38628888  0.58363582  0.16572768     0.08300
H600        H  0.38525900  0.53930145  0.21327213     0.07100
N601        N  0.43410562  0.82104909  0.37152065    -0.27300
N602        N  0.44899667  0.82115437  0.38486181    -0.35100
C603        C  0.45770682  0.83963565  0.38501065     0.01100
C604        C  0.44759082  0.85184156  0.37117235     0.07100
C605        C  0.43273994  0.83952173  0.36282985    -0.06000
H606        H  0.46969729  0.84418864  0.39525298     0.07800
H607        H  0.42114241  0.84397337  0.35208002     0.09000
Cu608      Cu  0.45374144  0.79689773  0.40416388     0.44200
Cu609      Cu  0.41575147  0.79588488  0.36815595     0.42000
Cu610      Cu  0.42142465  0.75161210  0.40337552     0.43900
N611        N  0.45509115  0.77397961  0.42556476    -0.34600
N612        N  0.44405387  0.75715884  0.42607307    -0.28900
C613        C  0.44961698  0.74643562  0.44289959    -0.05000
C614        C  0.46458089  0.75736933  0.45330306     0.07200
C615        C  0.46740300  0.77461968  0.44170868     0.01000
H616        H  0.44294259  0.73212146  0.44751189     0.08700
H617        H  0.47770416  0.78698472  0.44485644     0.07700
N618        N  0.40059561  0.75321634  0.37840904    -0.36100
N619        N  0.39910622  0.76936245  0.36640986    -0.28300
C620        C  0.38487800  0.76614332  0.35220848    -0.03500
C621        C  0.37673508  0.74703139  0.35491055     0.05100
C622        C  0.38700683  0.73920145  0.37177113     0.03200
H623        H  0.38071484  0.77705219  0.34067030     0.08300
H624        H  0.38480455  0.72436156  0.37860083     0.07100
N625        N  0.44190433  0.03674582  0.35935068    -0.27300
N626        N  0.45378658  0.03435524  0.37524574    -0.35100
C627        C  0.46019918  0.01499692  0.37622560     0.01100
C628        C  0.45211057  0.00441738  0.36001043     0.07100
C629        C  0.44072109  0.01882592  0.34942907    -0.06000
H630        H  0.46880768  0.00873029  0.38871968     0.07800
H631        H  0.43111813  0.01612825  0.33638991     0.09000
Cu632      Cu  0.45787411  0.05678614  0.39637408     0.44200
Cu633      Cu  0.42495222  0.06347830  0.35615865     0.42000
Cu634      Cu  0.42880104  0.10310057  0.39783880     0.43900
N635        N  0.46161426  0.07873188  0.41809050    -0.34600
N636        N  0.45185471  0.09629715  0.41916465    -0.28900
C637        C  0.45868414  0.10641053  0.43580240    -0.05000
C638        C  0.47309402  0.09420487  0.44548390     0.07200
C639        C  0.47438005  0.07692882  0.43372943     0.01000
H640        H  0.45312020  0.12107231  0.44083765     0.08700
H641        H  0.48388373  0.06379849  0.43640636     0.07700
N642        N  0.40625857  0.10221267  0.37491295    -0.36100
N643        N  0.40568750  0.08858245  0.36004296    -0.28300
C644        C  0.38904496  0.09188428  0.34870808    -0.03500
C645        C  0.37814408  0.10803875  0.35676261     0.05100
C646        C  0.38965123  0.11431190  0.37334452     0.03200
H647        H  0.38474031  0.08260822  0.33582964     0.08300
H648        H  0.38583591  0.12629562  0.38396039     0.07100
N649        N  0.90527428  0.31880476  0.39950196    -0.27300
N650        N  0.90569198  0.33516058  0.41108361    -0.35100
C651        C  0.92512583  0.34082195  0.41383923     0.01100
C652        C  0.93745444  0.32734833  0.40329918     0.07100
C653        C  0.92437464  0.31355925  0.39436993    -0.06000
H654        H  0.92995977  0.35342065  0.42322614     0.07800
H655        H  0.92845672  0.30038858  0.38536448     0.09000
Cu656      Cu  0.87908372  0.34711466  0.42307886     0.44200
Cu657      Cu  0.87811590  0.30485656  0.39280712     0.42000
Cu658      Cu  0.82868251  0.32473769  0.41257501     0.43900
N659        N  0.85216978  0.35664177  0.43652773    -0.34600
N660        N  0.83367528  0.34925626  0.43367307    -0.28900
C661        C  0.82072184  0.35979167  0.44605625    -0.05000
C662        C  0.83182575  0.37427991  0.45704316     0.07200
C663        C  0.85154298  0.37155042  0.45037927     0.01000
H664        H  0.80456285  0.35700739  0.44717317     0.08700
H665        H  0.86478771  0.37983643  0.45542678     0.07700
N666        N  0.83199020  0.30089235  0.39034934    -0.36100
N667        N  0.85001745  0.29402582  0.38445033    -0.28300
C668        C  0.84778259  0.27979614  0.37003033    -0.03500
C669        C  0.82743994  0.27736254  0.36597999     0.05100
C670        C  0.81772171  0.29089133  0.37928953     0.03200
H671        H  0.86024400  0.27234041  0.36236448     0.08300
H672        H  0.80151422  0.29374464  0.38028055     0.07100
N673        N  0.12276712  0.31967995  0.39699442    -0.27300
N674        N  0.12153115  0.32207942  0.41683617    -0.35100
C675        C  0.10192455  0.32292929  0.42240994     0.01100
C676        C  0.09023952  0.32076746  0.40516749     0.07100
C677        C  0.10388064  0.31867942  0.38925995    -0.06000
H678        H  0.09659997  0.32573246  0.43768672     0.07800
H679        H  0.10035491  0.31712813  0.37329489     0.09000
Cu680      Cu  0.14681914  0.32764073  0.43412722     0.44200
Cu681      Cu  0.15083345  0.31858264  0.38288467     0.42000
Cu682      Cu  0.19692466  0.33247546  0.41253261     0.43900
N683        N  0.16894672  0.34591159  0.44620912    -0.34600
N684        N  0.18718986  0.34929610  0.43849432    -0.28900
C685        C  0.19551945  0.36516207  0.44884213    -0.05000
C686        C  0.18151566  0.37189782  0.46340785     0.07200
C687        C  0.16508621  0.35918216  0.46111824     0.01000
H688        H  0.21002482  0.37202087  0.44527629     0.08700
H689        H  0.15069842  0.36027528  0.46893510     0.07700
N690        N  0.19683907  0.31348901  0.38622609    -0.36100
N691        N  0.18018055  0.31004995  0.37549170    -0.28300
C692        C  0.18434000  0.29700717  0.36037731    -0.03500
C693        C  0.20446739  0.29130648  0.36147153     0.05100
C694        C  0.21207594  0.30219613  0.37802021     0.03200
H695        H  0.17311891  0.29119206  0.34990349     0.08300
H696        H  0.22729055  0.30131456  0.38409429     0.07100
N697        N  0.36337866  0.33097917  0.90640408    -0.27300
N698        N  0.37618007  0.34634056  0.90601834    -0.35100
C699        C  0.37713496  0.35480190  0.92455104     0.01100
C700        C  0.36417533  0.34416293  0.93720624     0.07100
C701        C  0.35566136  0.32910624  0.92524572    -0.06000
H702        H  0.38688973  0.36735979  0.92862926     0.07800
H703        H  0.34510003  0.31742983  0.92998554     0.09000
Cu704      Cu  0.39216038  0.35320660  0.88007504     0.44200
Cu705      Cu  0.35878540  0.31416903  0.88048107     0.42000
Cu706      Cu  0.38777516  0.32670725  0.83197932     0.43900
N707        N  0.41055596  0.35898417  0.85550910    -0.34600
N708        N  0.41002264  0.35020045  0.83743928    -0.28900
C709        C  0.42556867  0.35823100  0.82620706    -0.05000
C710        C  0.43618071  0.37238489  0.83818874     0.07200
C711        C  0.42595602  0.37216484  0.85645572     0.01000
H712        H  0.42934679  0.35363269  0.81085922     0.08700
H713        H  0.42969677  0.38080464  0.86985468     0.07700
N714        N  0.36420918  0.30405370  0.83534962    -0.36100
N715        N  0.35463539  0.30036326  0.85274491    -0.28300
C716        C  0.34094425  0.28547194  0.85023880    -0.03500
C717        C  0.34150262  0.27906407  0.83041214     0.05100
C718        C  0.35649451  0.29106357  0.82128352     0.03200
H719        H  0.33136603  0.27953653  0.86219743     0.08300
H720        H  0.36147095  0.29025907  0.80560787     0.07100
N721        N  0.35973430  0.35020207  0.12147743    -0.27300
N722        N  0.37833248  0.35556167  0.11631298    -0.35100
C723        C  0.37921905  0.35842278  0.09616785     0.01100
C724        C  0.36020018  0.35468900  0.08816684     0.07100
C725        C  0.34814286  0.34943720  0.10464475    -0.06000
H726        H  0.39277400  0.36269926  0.08789865     0.07800
H727        H  0.33229046  0.34513904  0.10439197     0.09000
Cu728      Cu  0.40122999  0.35897386  0.13725618     0.44200
Cu729      Cu  0.35285555  0.34307892  0.15133694     0.42000
Cu730      Cu  0.39380698  0.34775053  0.19043092     0.43900
N731        N  0.42163439  0.36686234  0.15954317    -0.34600
N732        N  0.41935562  0.36378907  0.17926304    -0.28900
C733        C  0.43530881  0.37252066  0.18896118    -0.05000
C734        C  0.44801793  0.38130696  0.17443340     0.07200
C735        C  0.43873237  0.37730137  0.15611097     0.01000
H736        H  0.43740825  0.37262708  0.20525706     0.08700
H737        H  0.44378906  0.38206759  0.14126078     0.07700
N738        N  0.36654706  0.33100366  0.19395169    -0.36100
N739        N  0.35189889  0.33047134  0.18016589    -0.28300
C740        C  0.33757007  0.31717707  0.18601583    -0.03500
C741        C  0.34322889  0.30865934  0.20426853     0.05100
C742        C  0.36175811  0.31768038  0.20888088     0.03200
H743        H  0.32488384  0.31259565  0.17668869     0.08300
H744        H  0.37166445  0.31375539  0.22136567     0.07100
N745        N  0.09761852  0.30270270  0.11596436    -0.27300
N746        N  0.09510410  0.30646683  0.09645312    -0.35100
C747        C  0.09447781  0.32667194  0.09352076     0.01100
C748        C  0.09677424  0.33607911  0.11215362     0.07100
C749        C  0.09881383  0.32045058  0.12609623    -0.06000
H750        H  0.09194022  0.33396612  0.07901956     0.07800
H751        H  0.10065797  0.32185894  0.14236477     0.09000
Cu752      Cu  0.09027246  0.28358879  0.07564002     0.44200
Cu753      Cu  0.09973718  0.27323102  0.12658191     0.42000
Cu754      Cu  0.09289124  0.23075229  0.09021283     0.43900
N755        N  0.07644611  0.26046960  0.05973621    -0.34600
N756        N  0.07585464  0.24106904  0.06505017    -0.28900
C757        C  0.06237431  0.23143250  0.05277724    -0.05000
C758        C  0.05432382  0.24567873  0.03928179     0.07200
C759        C  0.06376752  0.26372414  0.04424276     0.01000
H760        H  0.05808206  0.21561123  0.05417877     0.08700
H761        H  0.06068933  0.27857089  0.03786603     0.07700
N762        N  0.11093727  0.22940434  0.11674974    -0.36100
N763        N  0.11154025  0.24434762  0.13023256    -0.28300
C764        C  0.12469745  0.23960070  0.14500432    -0.03500
C765        C  0.13350926  0.22102186  0.14067387     0.05100
C766        C  0.12429031  0.21485868  0.12263321     0.03200
H767        H  0.12849715  0.24962425  0.15746163     0.08300
H768        H  0.12768217  0.20128831  0.11398352     0.07100
N769        N  0.10353136  0.52060416  0.11204748    -0.27300
N770        N  0.08749986  0.51905888  0.10020423    -0.35100
C771        C  0.08167548  0.49947102  0.09938060     0.01100
C772        C  0.09474004  0.48827095  0.11144004     0.07100
C773        C  0.10847119  0.50208789  0.11921914    -0.06000
H774        H  0.06926869  0.49374780  0.09029581     0.07800
H775        H  0.12130145  0.49887534  0.12895139     0.09000
Cu776      Cu  0.07614563  0.54423927  0.08526538     0.44200
Cu777      Cu  0.11711433  0.54835104  0.11677132     0.42000
Cu778      Cu  0.09686711  0.59570454  0.09257272     0.43900
N779        N  0.06709827  0.56956339  0.06899536    -0.34600
N780        N  0.07370828  0.58849539  0.07089448    -0.28900
C781        C  0.06331372  0.60023880  0.05732895    -0.05000
C782        C  0.04979762  0.58784650  0.04654472     0.07200
C783        C  0.05289834  0.56867945  0.05453433     0.01000
H784        H  0.06534407  0.61647059  0.05549521     0.08700
H785        H  0.04508547  0.55484807  0.05028306     0.07700
N786        N  0.12002001  0.59468981  0.11544153    -0.36100
N787        N  0.12694593  0.57736221  0.12314170    -0.28300
C788        C  0.14127636  0.58117955  0.13706078    -0.03500
C789        C  0.14385487  0.60187214  0.13860906     0.05100
C790        C  0.13009703  0.61013184  0.12471254     0.03200
H791        H  0.14915272  0.56960569  0.14567534     0.08300
H792        H  0.12766720  0.62613481  0.12159376     0.07100
N793        N  0.38558768  0.98832039  0.12903147    -0.27300
N794        N  0.38566567  0.97275880  0.11644539    -0.35100
C795        C  0.40479605  0.96588835  0.11427138     0.01100
C796        C  0.41738453  0.97794723  0.12603822     0.07100
C797        C  0.40465595  0.99197121  0.13526584    -0.06000
H798        H  0.40945927  0.95448360  0.10336190     0.07800
H799        H  0.40919346  0.00510358  0.14405051     0.09000
Cu800      Cu  0.36031559  0.96659910  0.09924654     0.44200
Cu801      Cu  0.36004645  0.00616138  0.13178533     0.42000
Cu802      Cu  0.31995962  0.00497463  0.09162483     0.43900
N803        N  0.33752613  0.96437190  0.07796999    -0.34600
N804        N  0.32317950  0.97788125  0.07374710    -0.28900
C805        C  0.31348209  0.97147790  0.05662538    -0.05000
C806        C  0.32240451  0.95323176  0.05011568     0.07200
C807        C  0.33742649  0.94949497  0.06412745     0.01000
H808        H  0.30188450  0.98008061  0.04876871     0.08700
H809        H  0.34855810  0.93741703  0.06352411     0.07700
N810        N  0.32261417  0.02769020  0.11484957    -0.36100
N811        N  0.33630685  0.02642061  0.12951823    -0.28300
C812        C  0.33413289  0.04204861  0.14238391    -0.03500
C813        C  0.31877471  0.05459854  0.13563935     0.05100
C814        C  0.31160256  0.04490179  0.11810436     0.03200
H815        H  0.34350276  0.04429470  0.15568932     0.08300
H816        H  0.29947019  0.05011864  0.10831812     0.07100
N817        N  0.59933187  0.01120486  0.11468525    -0.27300
N818        N  0.59692991  0.00294230  0.09660978    -0.35100
C819        C  0.57772124  0.99639206  0.09477596     0.01100
C820        C  0.56755480  0.00090215  0.11260810     0.07100
C821        C  0.58167755  0.01032741  0.12494309    -0.06000
H822        H  0.57155005  0.98911313  0.08140026     0.07800
H823        H  0.57924971  0.01629486  0.14010237     0.09000
Cu824      Cu  0.62053358  0.00110162  0.07611717     0.44200
Cu825      Cu  0.62672199  0.02360897  0.12295470     0.42000
Cu826      Cu  0.67145366  0.01883403  0.08827385     0.43900
N827        N  0.64606344  0.99403197  0.05940005    -0.34600
N828        N  0.66503002  0.99902782  0.06369734    -0.28900
C829        C  0.67749582  0.98832029  0.05111290    -0.05000
C830        C  0.66554031  0.97618918  0.03849359     0.07200
C831        C  0.64584452  0.98049857  0.04425509     0.01000
H832        H  0.69391115  0.98848900  0.05184541     0.08700
H833        H  0.63222627  0.97315614  0.03881636     0.07700
N834        N  0.67012526  0.03728805  0.11469467    -0.36100
N835        N  0.65405575  0.03817668  0.12684535    -0.28300
C836        C  0.65763282  0.05113651  0.14214972    -0.03500
C837        C  0.67679691  0.05899335  0.13976607     0.05100
C838        C  0.68442576  0.04998517  0.12221628     0.03200
H839        H  0.64686309  0.05481975  0.15401503     0.08300
H840        H  0.69916537  0.05257479  0.11539800     0.07100
N841        N  0.38412949  0.04534514  0.91474421    -0.27300
N842        N  0.38696643  0.03066247  0.92803278    -0.35100
C843        C  0.40696624  0.02711197  0.93001263     0.01100
C844        C  0.41732635  0.04035836  0.91732846     0.07100
C845        C  0.40229472  0.05187249  0.90799856    -0.06000
H846        H  0.41340134  0.01481415  0.93881930     0.07800
H847        H  0.40433346  0.06307726  0.89614914     0.09000
Cu848      Cu  0.36269417  0.01442226  0.93915735     0.44200
Cu849      Cu  0.35520931  0.05116824  0.90407286     0.42000
Cu850      Cu  0.31232215  0.01491932  0.91505922     0.43900
N851        N  0.33921244  0.99531571  0.94692290    -0.34600
N852        N  0.32096982  0.99419095  0.93857994    -0.28900
C853        C  0.31113271  0.97810441  0.94718129    -0.05000
C854        C  0.32409658  0.96892371  0.96131903     0.07200
C855        C  0.34152155  0.98045770  0.96058309     0.01000
H856        H  0.29609110  0.97304229  0.94298091     0.08700
H857        H  0.35534126  0.97782999  0.96894617     0.07700
N858        N  0.31150330  0.03910443  0.89327868    -0.36100
N859        N  0.32683004  0.05194347  0.89070142    -0.28300
C860        C  0.32246298  0.06503277  0.87574063    -0.03500
C861        C  0.30361101  0.06053653  0.86798719     0.05100
C862        C  0.29692409  0.04396522  0.87949339     0.03200
H863        H  0.33289777  0.07642095  0.87005498     0.08300
H864        H  0.28296761  0.03558448  0.87739369     0.07100
N865        N  0.59684024  0.00897454  0.88352340    -0.27300
N866        N  0.59582178  0.00202715  0.90224134    -0.35100
C867        C  0.57644381  0.00248404  0.90860066     0.01100
C868        C  0.56473449  0.01028318  0.89302020     0.07100
C869        C  0.57813929  0.01426057  0.87730269    -0.06000
H870        H  0.57142763  0.99852232  0.92374831     0.07800
H871        H  0.57474570  0.02157094  0.86297679     0.09000
Cu872      Cu  0.62183346  0.99476671  0.91770204     0.44200
Cu873      Cu  0.62462034  0.01428548  0.87042167     0.42000
Cu874      Cu  0.67257977  0.00922881  0.90056636     0.43900
N875        N  0.64817523  0.98419042  0.93048230    -0.34600
N876        N  0.66708747  0.98857806  0.92527612    -0.28900
C877        C  0.67960489  0.97766932  0.93771519    -0.05000
C878        C  0.66764418  0.96596599  0.95094625     0.07200
C879        C  0.64799587  0.97073527  0.94566783     0.01000
H880        H  0.69603460  0.97808734  0.93712427     0.08700
H881        H  0.63431849  0.96484902  0.95244968     0.07700
N882        N  0.66841533  0.02864983  0.87459276    -0.36100
N883        N  0.65135794  0.02887075  0.86390466    -0.28300
C884        C  0.65252745  0.04276934  0.84905772    -0.03500
C885        C  0.67112029  0.05211045  0.84995075     0.05100
C886        C  0.68093307  0.04289970  0.86641375     0.03200
H887        H  0.64020809  0.04647840  0.83882622     0.08300
H888        H  0.69584532  0.04661456  0.87219931     0.07100
N889        N  0.40092902  0.82778716  0.09979375    -0.27300
N890        N  0.40054161  0.83406730  0.08080256    -0.35100
C891        C  0.41923364  0.84018725  0.07528245     0.01100
C892        C  0.43198483  0.83735602  0.09169665     0.07100
C893        C  0.41993794  0.82943165  0.10699134    -0.06000
H894        H  0.42317450  0.84637010  0.06059135     0.07800
H895        H  0.42459350  0.82536986  0.12220278     0.09000
Cu896      Cu  0.37362974  0.83504920  0.06505616     0.44200
Cu897      Cu  0.37472484  0.81795052  0.11377237     0.42000
Cu898      Cu  0.32440248  0.82854349  0.08982056     0.43900
N899        N  0.34670434  0.84565301  0.05348135    -0.34600
N900        N  0.32872991  0.84578072  0.06251173    -0.28900
C901        C  0.31664233  0.85909337  0.05215948    -0.05000
C902        C  0.32789683  0.86746008  0.03609824     0.07200
C903        C  0.34660337  0.85821897  0.03756797     0.01000
H904        H  0.30148561  0.86349664  0.05682853     0.08700
H905        H  0.36002264  0.86191554  0.02884367     0.07700
N906        N  0.32928480  0.80902466  0.11549825    -0.36100
N907        N  0.34751806  0.80581392  0.12340369    -0.28300
C908        C  0.34625324  0.79220227  0.13853927    -0.03500
C909        C  0.32631289  0.78630778  0.14083777     0.05100
C910        C  0.31587816  0.79727265  0.12589488     0.03200
H911        H  0.35911697  0.78662883  0.14701545     0.08300
H912        H  0.29974581  0.79653966  0.12269482     0.07100
N913        N  0.61174141  0.85639552  0.12493367    -0.27300
N914        N  0.61262987  0.87288963  0.11362286    -0.35100
C915        C  0.59378648  0.87806036  0.10767897     0.01100
C916        C  0.58034067  0.86387433  0.11551487     0.07100
C917        C  0.59229182  0.85040426  0.12647859    -0.06000
H918        H  0.59033482  0.89030548  0.09726085     0.07800
H919        H  0.58738281  0.83650643  0.13376197     0.09000
Cu920      Cu  0.64008356  0.88297914  0.10272791     0.44200
Cu921      Cu  0.63802931  0.84157137  0.13349187     0.42000
Cu922      Cu  0.68445954  0.84920993  0.10160304     0.43900
N923        N  0.66393033  0.88599074  0.08281808    -0.34600
N924        N  0.67972167  0.87368530  0.08056151    -0.28900
C925        C  0.68931119  0.87899809  0.06295499    -0.05000
C926        C  0.67867442  0.89518635  0.05404899     0.07200
C927        C  0.66291807  0.89898289  0.06725248     0.01000
H928        H  0.70205191  0.87084211  0.05643467     0.08700
H929        H  0.65059489  0.90951387  0.06494397     0.07700
N930        N  0.68176160  0.82783364  0.12611661    -0.36100
N931        N  0.66512659  0.82615053  0.13738723    -0.28300
C932        C  0.66765960  0.81146150  0.15133567    -0.03500
C933        C  0.68669172  0.80301535  0.14900310     0.05100
C934        C  0.69535736  0.81382619  0.13289269     0.03200
H935        H  0.65615188  0.80683316  0.16209016     0.08300
H936        H  0.71018063  0.81134101  0.12635015     0.07100
N937        N  0.92046214  0.32269131  0.11587462    -0.27300
N938        N  0.93122908  0.32436266  0.09908865    -0.35100
C939        C  0.93473002  0.34414032  0.09528943     0.01100
C940        C  0.92565954  0.35545436  0.11055441     0.07100
C941        C  0.91675816  0.34135392  0.12340945    -0.06000
H942        H  0.94270193  0.34987353  0.08211032     0.07800
H943        H  0.90765421  0.34446118  0.13676716     0.09000
Cu944      Cu  0.93907047  0.29893007  0.08254745     0.44200
Cu945      Cu  0.90972734  0.29471420  0.12479067     0.42000
Cu946      Cu  0.92038096  0.24771449  0.09378340     0.43900
N947        N  0.94865042  0.27303878  0.06768391    -0.34600
N948        N  0.94280329  0.25405082  0.07096054    -0.28900
C949        C  0.95328520  0.24187925  0.05778976    -0.05000
C950        C  0.96613803  0.25408055  0.04593887     0.07200
C951        C  0.96254235  0.27355298  0.05286963     0.01000
H952        H  0.95163565  0.22553076  0.05681219     0.08700
H953        H  0.96958787  0.28738460  0.04746006     0.07700
N954        N  0.89815587  0.25020482  0.11757939    -0.36100
N955        N  0.89517148  0.26720674  0.12804801    -0.28300
C956        C  0.88021041  0.26453265  0.14161255    -0.03500
C957        C  0.87317545  0.24488787  0.14019849     0.05100
C958        C  0.88484027  0.23611765  0.12471281     0.03200
H959        H  0.87490317  0.27611112  0.15191120     0.08300
H960        H  0.88384583  0.22058518  0.11923660     0.07100
N961        N  0.90669680  0.53984314  0.11827475    -0.27300
N962        N  0.92557546  0.53962715  0.11162075    -0.35100
C963        C  0.93258479  0.52045952  0.11154926     0.01100
C964        C  0.91732750  0.50796291  0.11863815     0.07100
C965        C  0.90103699  0.52068327  0.12279250    -0.06000
H966        H  0.94710442  0.51579463  0.10536879     0.07800
H967        H  0.88592852  0.51622426  0.12748540     0.09000
Cu968      Cu  0.93859060  0.56490868  0.09899748     0.44200
Cu969      Cu  0.89053013  0.56678468  0.11814484     0.42000
Cu970      Cu  0.91278490  0.61302181  0.09255858     0.43900
N971        N  0.94789626  0.58652538  0.07864558    -0.34600
N972        N  0.93909071  0.60425802  0.07499166    -0.28900
C973        C  0.94886748  0.61274724  0.05876932    -0.05000
C974        C  0.96413270  0.59932916  0.05212313     0.07200
C975        C  0.96279326  0.58308164  0.06522867     0.01000
H976        H  0.94455264  0.62696602  0.05168571     0.08700
H977        H  0.97151844  0.56924356  0.06457979     0.07700
N978        N  0.88691536  0.61302244  0.11280385    -0.36100
N979        N  0.87939655  0.59608416  0.12080887    -0.28300
C980        C  0.86358198  0.60053106  0.13290479    -0.03500
C981        C  0.86048579  0.62124374  0.13295744     0.05100
C982        C  0.87565640  0.62884286  0.12007735     0.03200
H983        H  0.85517913  0.58938436  0.14157045     0.08300
H984        H  0.87834181  0.64464753  0.11644393     0.07100
N985        N  0.91222882  0.03007436  0.39157651    -0.27300
N986        N  0.93005204  0.02096244  0.39156774    -0.35100
C987        C  0.93766870  0.02124591  0.41051046     0.01100
C988        C  0.92383562  0.03124621  0.42288205     0.07100
C989        C  0.90787902  0.03663996  0.41039480    -0.06000
H990        H  0.95199072  0.01455116  0.41496486     0.07800
H991        H  0.89411058  0.04457529  0.41468596     0.09000
Cu992      Cu  0.94104824  0.00832419  0.36504532     0.44200
Cu993      Cu  0.89600799  0.03279350  0.36522393     0.42000
Cu994      Cu  0.91360679  0.01080666  0.31603495     0.43900
N995        N  0.94789568  0.99139575  0.33953501    -0.34600
N996        N  0.93846078  0.99102280  0.32179564    -0.28900
C997        C  0.94706078  0.97605069  0.31031259    -0.05000
C998        C  0.96235407  0.96675691  0.32171338     0.07200
C999        C  0.96227463  0.97707646  0.33991472     0.01000
H1000       H  0.94205683  0.97174693  0.29526907     0.08700
H1001       H  0.97162709  0.97392561  0.35298181     0.07700
N1002       N  0.89037278  0.03304267  0.31934082    -0.36100
N1003       N  0.88437245  0.03993717  0.33730013    -0.28300
C1004       C  0.87006327  0.05422127  0.33490766    -0.03500
C1005       C  0.86657013  0.05673702  0.31453959     0.05100
C1006       C  0.87969846  0.04313536  0.30491149     0.03200
H1007       H  0.86301137  0.06256129  0.34721303     0.08300
H1008       H  0.88148232  0.04094153  0.28873233     0.07100
N1009       N  0.92029686  0.04579491  0.60650256    -0.27300
N1010       N  0.92805925  0.02758087  0.60340338    -0.35100
C1011       C  0.93355054  0.02575732  0.58385738     0.01100
C1012       C  0.92885658  0.04377848  0.57410632     0.07100
C1013       C  0.92045679  0.05622406  0.58892194    -0.06000
H1014       H  0.93916687  0.01188865  0.57695192     0.07800
H1015       H  0.91365696  0.07105611  0.58676061     0.09000
Cu1016     Cu  0.92821783  0.00620990  0.62606590     0.44200
Cu1017     Cu  0.90730917  0.05253685  0.63419121     0.42000
Cu1018     Cu  0.90976990  0.01474918  0.67736370     0.43900
N1019       N  0.93383936  0.98676060  0.64968884    -0.34600
N1020       N  0.92896462  0.98921627  0.66903513    -0.28900
C1021       C  0.93829366  0.97388991  0.67960594    -0.05000
C1022       C  0.94920716  0.96150727  0.66590339     0.07200
C1023       C  0.94567477  0.97041114  0.64732763     0.01000
H1024       H  0.93753407  0.97206338  0.69592164     0.08700
H1025       H  0.95208961  0.96582166  0.63289238     0.07700
N1026       N  0.89094912  0.04188875  0.67644992    -0.36100
N1027       N  0.89106959  0.05477483  0.66091802    -0.28300
C1028       C  0.87765201  0.06985308  0.66413304    -0.03500
C1029       C  0.86825893  0.06690600  0.68257254     0.05100
C1030       C  0.87698589  0.04891486  0.69004903     0.03200
H1031       H  0.87463111  0.08197591  0.65348645     0.08300
H1032       H  0.87330146  0.04148469  0.70422379     0.07100
N1033       N  0.08396543  0.80329478  0.39023377    -0.27300
N1034       N  0.06526403  0.80985860  0.38725654    -0.35100
C1035       C  0.05460344  0.80799584  0.40462883     0.01100
C1036       C  0.06728421  0.79960465  0.41912520     0.07100
C1037       C  0.08578591  0.79682527  0.40952052    -0.06000
H1038       H  0.03905339  0.81294172  0.40671884     0.07800
H1039       H  0.09965288  0.79107980  0.41621064     0.09000
Cu1040     Cu  0.05695103  0.82278409  0.35988513     0.44200
Cu1041     Cu  0.10547272  0.80459368  0.36735697     0.42000
Cu1042     Cu  0.09259298  0.82857896  0.31765748     0.43900
N1043       N  0.05261366  0.84208879  0.33548472    -0.34600
N1044       N  0.06532142  0.84553595  0.32027746    -0.28900
C1045       C  0.05831964  0.86184679  0.30961831    -0.05000
C1046       C  0.04050687  0.86877181  0.31886027     0.07200
C1047       C  0.03755325  0.85574296  0.33501289     0.01000
H1048       H  0.06633009  0.86899390  0.29716281     0.08700
H1049       H  0.02602270  0.85701688  0.34655672     0.07700
N1050       N  0.11775915  0.80912223  0.32288086    -0.36100
N1051       N  0.12249111  0.80190845  0.34107124    -0.28300
C1052       C  0.13841781  0.78925458  0.33947315    -0.03500
C1053       C  0.14398926  0.78782710  0.31933466     0.05100
C1054       C  0.13065830  0.80075361  0.30916232     0.03200
H1055       H  0.14451934  0.78048221  0.35191360     0.08300
H1056       H  0.12968025  0.80298155  0.29289052     0.07100
N1057       N  0.06864882  0.78399940  0.60250602    -0.27300
N1058       N  0.05759804  0.80050848  0.59994930    -0.35100
C1059       C  0.05165448  0.80170686  0.58050442     0.01100
C1060       C  0.05939100  0.78503899  0.57019832     0.07100
C1061       C  0.07003260  0.77400581  0.58470236    -0.06000
H1062       H  0.04338742  0.81440068  0.57405861     0.07800
H1063       H  0.07908715  0.76048074  0.58223765     0.09000
Cu1064     Cu  0.05359472  0.82096992  0.62318981     0.44200
Cu1065     Cu  0.08332880  0.77942321  0.62981706     0.42000
Cu1066     Cu  0.07705126  0.81684617  0.67312739     0.43900
N1067       N  0.04731098  0.84028765  0.64687969    -0.34600
N1068       N  0.05450597  0.83947733  0.66561371    -0.28900
C1069       C  0.04517221  0.85458794  0.67645043    -0.05000
C1070       C  0.03182209  0.86515717  0.66356404     0.07200
C1071       C  0.03389172  0.85545912  0.64515284     0.01000
H1072       H  0.04793679  0.85774914  0.69233177     0.08700
H1073       H  0.02583580  0.85896375  0.63130090     0.07700
N1074       N  0.09872890  0.79216178  0.67192557    -0.36100
N1075       N  0.10012332  0.77945554  0.65630358    -0.28300
C1076       C  0.11523429  0.76609727  0.65941716    -0.03500
C1077       C  0.12412999  0.76996589  0.67791620     0.05100
C1078       C  0.11330884  0.78672397  0.68551078     0.03200
H1079       H  0.11964980  0.75444086  0.64870442     0.08300
H1080       H  0.11592569  0.79439252  0.69983042     0.07100
N1081       N  0.91104331  0.31894342  0.88878562    -0.27300
N1082       N  0.92091391  0.32078133  0.90604867    -0.35100
C1083       C  0.92291790  0.34058855  0.91058646     0.01100
C1084       C  0.91354204  0.35175040  0.89544801     0.07100
C1085       C  0.90608925  0.33753083  0.88186741    -0.06000
H1086       H  0.93057500  0.34640529  0.92388700     0.07800
H1087       H  0.89765497  0.34045366  0.86809798     0.09000
Cu1088     Cu  0.93021799  0.29559604  0.92192067     0.44200
Cu1089     Cu  0.90502759  0.29066324  0.87701082     0.42000
Cu1090     Cu  0.91991472  0.24356851  0.90569896     0.43900
N1091       N  0.94121989  0.27009986  0.93613241    -0.34600
N1092       N  0.93879522  0.25089083  0.93065150    -0.28900
C1093       C  0.95044793  0.23914832  0.94305442    -0.05000
C1094       C  0.96040519  0.25189530  0.95677411     0.07200
C1095       C  0.95397031  0.27120038  0.95179337     0.01000
H1096       H  0.95214251  0.22283037  0.94170209     0.08700
H1097       H  0.95896930  0.28535041  0.95849915     0.07700
N1098       N  0.89943229  0.24477419  0.88091701    -0.36100
N1099       N  0.89522238  0.26167822  0.87073934    -0.28300
C1100       C  0.88082738  0.25795043  0.85689875    -0.03500
C1101       C  0.87530381  0.23784274  0.85828414     0.05100
C1102       C  0.88743892  0.22976832  0.87358423     0.03200
H1103       H  0.87400996  0.26942598  0.84726118     0.08300
H1104       H  0.88690653  0.21444922  0.87952581     0.07100
N1105       N  0.90683565  0.53707543  0.89224027    -0.27300
N1106       N  0.90979066  0.53453039  0.91187421    -0.35100
C1107       C  0.90996775  0.51453128  0.91609114     0.01100
C1108       C  0.90684773  0.50406045  0.89814785     0.07100
C1109       C  0.90486052  0.51879519  0.88330443    -0.06000
H1110       H  0.91305963  0.50807918  0.93089101     0.07800
H1111       H  0.90279421  0.51640166  0.86716715     0.09000
Cu1112     Cu  0.91641840  0.55879610  0.93052254     0.44200
Cu1113     Cu  0.90577214  0.56572008  0.87972531     0.42000
Cu1114     Cu  0.91570957  0.61075271  0.91152341     0.43900
N1115       N  0.93247798  0.58227622  0.94358335    -0.34600
N1116       N  0.93384023  0.60122434  0.93688895    -0.28900
C1117       C  0.94850074  0.61075669  0.94798287    -0.05000
C1118       C  0.95651867  0.59689440  0.96205570     0.07200
C1119       C  0.94576388  0.57924011  0.95861813     0.01000
H1120       H  0.95352887  0.62621024  0.94546949     0.08700
H1121       H  0.94816354  0.56465628  0.96590665     0.07700
N1122       N  0.89642224  0.61066679  0.88520836    -0.36100
N1123       N  0.89459005  0.59429440  0.87360447    -0.28300
C1124       C  0.88078570  0.59761898  0.85901977    -0.03500
C1125       C  0.87311641  0.61697803  0.86113977     0.05100
C1126       C  0.88330449  0.62495779  0.87799571     0.03200
H1127       H  0.87556419  0.58616331  0.84852946     0.08300
H1128       H  0.88061271  0.63958197  0.88501694     0.07100
N1129       N  0.89164201  0.81935529  0.38223651    -0.27300
N1130       N  0.91035070  0.82615612  0.38409710    -0.35100
C1131       C  0.91634423  0.82444610  0.40348036     0.01100
C1132       C  0.90060290  0.81592981  0.41438740     0.07100
C1133       C  0.88511806  0.81278652  0.40049615    -0.06000
H1134       H  0.93114843  0.82869608  0.40910942     0.07800
H1135       H  0.87049985  0.80587680  0.40335180     0.09000
Cu1136     Cu  0.92621127  0.83661295  0.35953391     0.44200
Cu1137     Cu  0.87845180  0.81802762  0.35373072     0.42000
Cu1138     Cu  0.91085649  0.82966916  0.30762957     0.43900
N1139       N  0.93903148  0.85173359  0.33564910    -0.34600
N1140       N  0.93412372  0.85020768  0.31626219    -0.28900
C1141       C  0.94555555  0.86387268  0.30574097    -0.05000
C1142       C  0.95785691  0.87431287  0.31953763     0.07200
C1143       C  0.95315821  0.86602180  0.33813154     0.01000
H1144       H  0.94473840  0.86627450  0.28950578     0.08700
H1145       H  0.95939388  0.87025583  0.35267626     0.07700
N1146       N  0.88542923  0.80980036  0.30852235    -0.36100
N1147       N  0.87313520  0.80802792  0.32440154    -0.28300
C1148       C  0.85853865  0.79445451  0.32024223    -0.03500
C1149       C  0.86193548  0.78631736  0.30120730     0.05100
C1150       C  0.87906169  0.79660717  0.29408855     0.03200
H1151       H  0.84691120  0.78994624  0.33095850     0.08300
H1152       H  0.88680043  0.79408952  0.27978536     0.07100
N1153       N  0.89990260  0.79288422  0.59798946    -0.27300
N1154       N  0.91133189  0.80911645  0.59529257    -0.35100
C1155       C  0.91527557  0.81126300  0.57535864     0.01100
C1156       C  0.90594783  0.79549759  0.56492173     0.07100
C1157       C  0.89636987  0.78406852  0.57985607    -0.06000
H1158       H  0.92389366  0.82366353  0.56885379     0.07800
H1159       H  0.88720534  0.77060846  0.57769913     0.09000
Cu1160     Cu  0.92010754  0.82732930  0.61949498     0.44200
Cu1161     Cu  0.88879164  0.78562280  0.62653457     0.42000
Cu1162     Cu  0.90211938  0.81801935  0.67146866     0.43900
N1163       N  0.92925504  0.84424977  0.64450353    -0.34600
N1164       N  0.92381530  0.84152302  0.66369491    -0.28900
C1165       C  0.93403693  0.85556706  0.67510112    -0.05000
C1166       C  0.94615160  0.86760682  0.66225118     0.07200
C1167       C  0.94246271  0.85968812  0.64316024     0.01000
H1168       H  0.93280366  0.85693694  0.69144160     0.08700
H1169       H  0.94926691  0.86464724  0.62905677     0.07700
N1170       N  0.88040388  0.79325066  0.67166432    -0.36100
N1171       N  0.87646537  0.78209511  0.65532869    -0.28300
C1172       C  0.86253787  0.76782407  0.65982114    -0.03500
C1173       C  0.85701373  0.76963393  0.67993670     0.05100
C1174       C  0.86862992  0.78599272  0.68706825     0.03200
H1175       H  0.85677009  0.75682736  0.64909131     0.08300
H1176       H  0.86858700  0.79201226  0.70237044     0.07100
N1177       N  0.40373362  0.82185820  0.89501089    -0.27300
N1178       N  0.40358607  0.83945927  0.90456503    -0.35100
C1179       C  0.42283306  0.84541622  0.90779551     0.01100
C1180       C  0.43558309  0.83078107  0.89959979     0.07100
C1181       C  0.42300807  0.81603223  0.89159951    -0.06000
H1182       H  0.42720971  0.85903794  0.91590225     0.07800
H1183       H  0.42750551  0.80191969  0.88439208     0.09000
Cu1184     Cu  0.37636717  0.85232886  0.91343184     0.44200
Cu1185     Cu  0.37695117  0.80749288  0.88866809     0.42000
Cu1186     Cu  0.32659119  0.82795141  0.90614881     0.43900
N1187       N  0.34965980  0.86210071  0.92668138    -0.34600
N1188       N  0.33143678  0.85368015  0.92560516    -0.28900
C1189       C  0.31908876  0.86374081  0.93895038    -0.05000
C1190       C  0.33038247  0.87900252  0.94861708     0.07200
C1191       C  0.34947410  0.87727669  0.94017541     0.01000
H1192       H  0.30345208  0.85970606  0.94205963     0.08700
H1193       H  0.36280141  0.88583684  0.94435134     0.07700
N1194       N  0.33099215  0.80336389  0.88509406    -0.36100
N1195       N  0.34925182  0.79659197  0.87983019    -0.28300
C1196       C  0.34761724  0.78174880  0.86599038    -0.03500
C1197       C  0.32744333  0.77870174  0.86184605     0.05100
C1198       C  0.31715429  0.79254793  0.87431624     0.03200
H1199       H  0.36035814  0.77403849  0.85904329     0.08300
H1200       H  0.30086036  0.79485859  0.87509927     0.07100
N1201       N  0.62007929  0.82826328  0.89661900    -0.27300
N1202       N  0.61907590  0.82860271  0.91663048    -0.35100
C1203       C  0.59956377  0.82727112  0.92245416     0.01100
C1204       C  0.58779974  0.82568899  0.90519331     0.07100
C1205       C  0.60122307  0.82637109  0.88903990    -0.06000
H1206       H  0.59428387  0.82834981  0.93795915     0.07800
H1207       H  0.59751604  0.82623845  0.87302754     0.09000
Cu1208     Cu  0.64430741  0.83388522  0.93424732     0.44200
Cu1209     Cu  0.64755666  0.83046674  0.88164140     0.42000
Cu1210     Cu  0.69396824  0.83688032  0.91193916     0.43900
N1211       N  0.66761958  0.85043409  0.94676710    -0.34600
N1212       N  0.68565671  0.85355903  0.93848454    -0.28900
C1213       C  0.69457134  0.86929513  0.94855901    -0.05000
C1214       C  0.68122644  0.87614172  0.96367929     0.07200
C1215       C  0.66457445  0.86356881  0.96197042     0.01000
H1216       H  0.70885184  0.87620303  0.94424516     0.08700
H1217       H  0.65034735  0.86508276  0.97000246     0.07700
N1218       N  0.69204114  0.81910544  0.88484819    -0.36100
N1219       N  0.67567864  0.81952604  0.87318426    -0.28300
C1220       C  0.67763001  0.80594297  0.85811488    -0.03500
C1221       C  0.69569682  0.79557951  0.86040943     0.05100
C1222       C  0.70466514  0.80447418  0.87747142     0.03200
H1223       H  0.66552990  0.80203289  0.84773289     0.08300
H1224       H  0.71846383  0.79953214  0.88485681     0.07100
C1225       C  0.23161760  0.66137678  0.74026627     0.02300
C1226       C  0.23889334  0.68078632  0.73317105     0.02300
C1227       C  0.25816646  0.68840286  0.74072085     0.02300
C1228       C  0.26672327  0.67956633  0.75911592     0.02300
C1229       C  0.25902607  0.66010170  0.76647570     0.02300
C1230       C  0.23982050  0.65277437  0.75877867     0.02300
C1231       C  0.73052890  0.65524629  0.77695938     0.02300
C1232       C  0.72340343  0.67478902  0.76909134     0.02300
C1233       C  0.73266571  0.68232465  0.75026421     0.02300
C1234       C  0.75140000  0.67371062  0.74334744     0.02300
C1235       C  0.75787283  0.65464357  0.75140060     0.02300
C1236       C  0.75061789  0.64843027  0.77079612     0.02300
C1237       C  0.73324656  0.66386479  0.23334631     0.02300
C1238       C  0.75293819  0.65565521  0.23999767     0.02300
C1239       C  0.75868194  0.66083410  0.26027706     0.02300
C1240       C  0.75642188  0.68193503  0.26450094     0.02300
C1241       C  0.73602549  0.68889449  0.26158337     0.02300
C1242       C  0.72709383  0.68351602  0.24183817     0.02300
C1243       C  0.73306594  0.16337376  0.76352746     0.02300
C1244       C  0.74136464  0.15655682  0.74449511     0.02300
C1245       C  0.76042637  0.16447858  0.73808721     0.02300
C1246       C  0.76714045  0.18341341  0.74595880     0.02300
C1247       C  0.76061777  0.18962159  0.76589966     0.02300
C1248       C  0.74138299  0.18154870  0.77355008     0.02300
N1249       N  0.08498528  0.30937303  0.87564104    -0.27300
N1250       N  0.06711365  0.30834515  0.88456259    -0.35100
C1251       C  0.05851732  0.32693387  0.88454236     0.01100
C1252       C  0.07177074  0.34016207  0.87491177     0.07100
C1253       C  0.08838434  0.32851456  0.86943971    -0.06000
H1254       H  0.04423263  0.33072549  0.89180545     0.07800
H1255       H  0.10227863  0.33375337  0.86236670     0.09000
Cu1256     Cu  0.05844564  0.28167601  0.89847135     0.44200
Cu1257     Cu  0.10360541  0.28443150  0.87473276     0.42000
Cu1258     Cu  0.09193722  0.23642086  0.90209957     0.43900
N1259       N  0.05482111  0.25828121  0.91892030    -0.34600
N1260       N  0.06646163  0.24206032  0.92175793    -0.28900
C1261       C  0.05982517  0.23257904  0.93898819    -0.05000
C1262       C  0.04355304  0.24376560  0.94708159     0.07200
C1263       C  0.04105943  0.25968308  0.93376984     0.01000
H1264       H  0.06702154  0.21942335  0.94575853     0.08700
H1265       H  0.03056830  0.27222457  0.93536164     0.07700
N1266       N  0.11537349  0.23992470  0.87960830    -0.36100
N1267       N  0.11915517  0.25771414  0.87089626    -0.28300
C1268       C  0.13383441  0.25573056  0.85692309    -0.03500
C1269       C  0.13994408  0.23576953  0.85632541     0.05100
C1270       C  0.12797860  0.22598945  0.87093576     0.03200
H1271       H  0.13905795  0.26789233  0.84718020     0.08300
H1272       H  0.12798884  0.20989226  0.87443658     0.07100
N1273       N  0.07496661  0.52519276  0.87294789    -0.27300
N1274       N  0.06601386  0.52169203  0.89048230    -0.35100
C1275       C  0.06119511  0.50186427  0.89169300     0.01100
C1276       C  0.06756667  0.49246832  0.87394482     0.07100
C1277       C  0.07616830  0.50776443  0.86233391    -0.06000
H1278       H  0.05463140  0.49461147  0.90491697     0.07800
H1279       H  0.08387147  0.50610994  0.84789329     0.09000
Cu1280     Cu  0.06351422  0.54469819  0.91160183     0.44200
Cu1281     Cu  0.08835803  0.55282885  0.86766074     0.42000
Cu1282     Cu  0.08913257  0.59450345  0.90602563     0.43900
N1283       N  0.05872032  0.56937708  0.93031740    -0.34600
N1284       N  0.06679092  0.58779253  0.92903019    -0.28900
C1285       C  0.05825649  0.59937345  0.94401733    -0.05000
C1286       C  0.04445562  0.58736994  0.95499902     0.07200
C1287       C  0.04542038  0.56864362  0.94567164     0.01000
H1288       H  0.06180566  0.61522225  0.94676446     0.08700
H1289       H  0.03674687  0.55530104  0.94957334     0.07700
N1290       N  0.10925360  0.59226173  0.88024118    -0.36100
N1291       N  0.10789151  0.57709153  0.86703487    -0.28300
C1292       C  0.12203852  0.57903317  0.85252371    -0.03500
C1293       C  0.13316459  0.59628988  0.85616717     0.05100
C1294       C  0.12472831  0.60446255  0.87394952     0.03200
H1295       H  0.12390752  0.56865606  0.83995621     0.08300
H1296       H  0.12928795  0.61838322  0.88146378     0.07100
C1297       C  0.25837391  0.14435811  0.73192497     0.02300
C1298       C  0.23850991  0.15111526  0.72546763     0.02300
C1299       C  0.23124537  0.17026071  0.73270448     0.02300
C1300       C  0.23854113  0.17814121  0.75157196     0.02300
C1301       C  0.25719158  0.17044123  0.75977019     0.02300
C1302       C  0.26611199  0.15184350  0.75131369     0.02300
C1303       C  0.26583347  0.66213057  0.23623975     0.02300
C1304       C  0.24623479  0.65501835  0.24332098     0.02300
C1305       C  0.23849677  0.66294887  0.26259691     0.02300
C1306       C  0.24649248  0.68214591  0.26992378     0.02300
C1307       C  0.26584081  0.68950120  0.26226983     0.02300
C1308       C  0.27332635  0.68169329  0.24338144     0.02300
C1309       C  0.74628092  0.15471753  0.25611370     0.02300
C1310       C  0.76548856  0.16235814  0.26330382     0.02300
C1311       C  0.77282640  0.18181898  0.25575633     0.02300
C1312       C  0.76470367  0.18963278  0.23691742     0.02300
C1313       C  0.74544501  0.18169327  0.22956323     0.02300
C1314       C  0.73825370  0.16245589  0.23715310     0.02300
N1315       N  0.09929510  0.03169110  0.38279000    -0.27300
N1316       N  0.08552575  0.01736601  0.38484371    -0.35100
C1317       C  0.08302025  0.01306293  0.40459659     0.01100
C1318       C  0.09606923  0.02525632  0.41563774     0.07100
C1319       C  0.10622736  0.03695850  0.40129625    -0.06000
H1320       H  0.07267451  0.00172616  0.41047630     0.07800
H1321       H  0.11784087  0.04820751  0.40406601     0.09000
Cu1322     Cu  0.07287228  0.00404599  0.35978560     0.44200
Cu1323     Cu  0.10658949  0.04146888  0.35388251     0.42000
Cu1324     Cu  0.08530309  0.01570133  0.30681398     0.43900
N1325       N  0.06271548  0.98771011  0.33539367    -0.34600
N1326       N  0.06602652  0.99109911  0.31585940    -0.28900
C1327       C  0.05563879  0.97667044  0.30523467    -0.05000
C1328       C  0.04581590  0.96377446  0.31906777     0.07200
C1329       C  0.05086042  0.97145589  0.33780082     0.01000
H1330       H  0.05508730  0.97573896  0.28883005     0.08700
H1331       H  0.04580869  0.96591323  0.35241722     0.07700
N1332       N  0.10625223  0.04065655  0.30715240    -0.36100
N1333       N  0.11282296  0.04931854  0.32413212    -0.28300
C1334       C  0.12610131  0.06409996  0.31967318    -0.03500
C1335       C  0.12842908  0.06516430  0.29898599     0.05100
C1336       C  0.11570613  0.05000818  0.29133816     0.03200
H1337       H  0.13416076  0.07298407  0.33086671     0.08300
H1338       H  0.11391501  0.04578544  0.27558958     0.07100
N1339       N  0.08911353  0.02259688  0.60116017    -0.27300
N1340       N  0.08274830  0.00375649  0.59866407    -0.35100
C1341       C  0.08196934  0.99957953  0.57865976     0.01100
C1342       C  0.08834191  0.01669580  0.56813289     0.07100
C1343       C  0.09277838  0.03100707  0.58288874    -0.06000
H1344       H  0.07716448  0.98521874  0.57225773     0.07800
H1345       H  0.09833800  0.04628963  0.58052679     0.09000
Cu1346     Cu  0.07499835  0.98609854  0.62357483     0.44200
Cu1347     Cu  0.09320436  0.03440089  0.62988243     0.42000
Cu1348     Cu  0.08139455  0.00434425  0.67615676     0.43900
N1349       N  0.06095925  0.97327608  0.64868632    -0.34600
N1350       N  0.06179849  0.97947582  0.66781682    -0.28900
C1351       C  0.04798898  0.96833516  0.67862447    -0.05000
C1352       C  0.03815514  0.95478193  0.66542514     0.07200
C1353       C  0.04708933  0.95854270  0.64682390     0.01000
H1354       H  0.04474536  0.97047722  0.69460626     0.08700
H1355       H  0.04309045  0.95160631  0.63248750     0.07700
N1356       N  0.10114385  0.03049597  0.67533309    -0.36100
N1357       N  0.10388534  0.04123879  0.65849669    -0.28300
C1358       C  0.11717370  0.05633315  0.66185214    -0.03500
C1359       C  0.12355410  0.05548264  0.68169712     0.05100
C1360       C  0.11316283  0.03880790  0.68993254     0.03200
H1361       H  0.12257845  0.06668163  0.65029515     0.08300
H1362       H  0.11465383  0.03292039  0.70522267     0.07100
C1363       C  0.24249126  0.18025871  0.26099293     0.02300
C1364       C  0.24725809  0.16030835  0.26800606     0.02300
C1365       C  0.26669599  0.15200943  0.26033383     0.02300
C1366       C  0.27356370  0.15942832  0.24029159     0.02300
C1367       C  0.26420988  0.17829956  0.23268214     0.02300
C1368       C  0.24409400  0.18183308  0.23961030     0.02300
C1369       C  0.14374072  0.07834652  0.28881375     0.01400
C1370       C  0.13934748  0.09907347  0.28523724     0.04200
C1371       C  0.15511358  0.11291831  0.28057562    -0.11900
C1372       C  0.17554881  0.10629980  0.28021723     0.23500
C1373       C  0.17980108  0.08535996  0.28289856    -0.12400
C1374       C  0.16395660  0.07146359  0.28696358     0.04900
C1375       C  0.19260797  0.12114292  0.27685639     0.27300
C1376       C  0.20261678  0.12182011  0.25815434    -0.13100
C1377       C  0.22054402  0.13345647  0.25566011     0.05400
C1378       C  0.22806488  0.14676091  0.27118157    -0.09100
C1379       C  0.21574268  0.14766594  0.28927542     0.06200
C1380       C  0.19917178  0.13414406  0.29240749    -0.13500
Br1381     Br  0.20750209  0.07576817  0.28176732    -0.05500
Br1382     Br  0.11171242  0.10856472  0.28755960     0.00100
Br1383     Br  0.23356952  0.12985121  0.23035041     0.00600
Br1384     Br  0.18525551  0.13297769  0.31834721    -0.03900
Br1385     Br  0.16999561  0.04300705  0.29101683     0.00700
Br1386     Br  0.14880238  0.14101605  0.27483765    -0.03200
Br1387     Br  0.19096454  0.10674656  0.23568903    -0.04000
Br1388     Br  0.22008963  0.16666831  0.31075559     0.00000
C1389       C  0.09816065  0.02530052  0.43803145     0.01400
C1390       C  0.09418403  0.04314992  0.44932641     0.04200
C1391       C  0.09281378  0.04220120  0.47066038    -0.11900
C1392       C  0.09568554  0.02352745  0.48079520     0.23500
C1393       C  0.10070062  0.00593294  0.46961155    -0.12400
C1394       C  0.10217796  0.00686200  0.44831488     0.04900
C1395       C  0.09370662  0.02241033  0.50325057     0.27300
C1396       C  0.11116567  0.02344821  0.51553342    -0.13100
C1397       C  0.10944460  0.02153586  0.53676589     0.05400
C1398       C  0.09016642  0.01910577  0.54585265    -0.09100
C1399       C  0.07262294  0.01888216  0.53359155     0.06200
C1400       C  0.07441428  0.02020076  0.51231290    -0.13500
Br1401     Br  0.10506195  0.98043363  0.48351707    -0.05500
Br1402     Br  0.08982993  0.06881761  0.43575504     0.00100
Br1403     Br  0.13362000  0.02149977  0.55326836     0.00600
Br1404     Br  0.05047774  0.01892872  0.49549474    -0.03900
Br1405     Br  0.11070918  0.98303563  0.43333130     0.00700
Br1406     Br  0.08641339  0.06634265  0.48611075    -0.03200
Br1407     Br  0.13741827  0.02757542  0.50311541    -0.04000
Br1408     Br  0.04606404  0.01782820  0.54600324     0.00000
C1409       C  0.13982000  0.06880144  0.69033067     0.01400
C1410       C  0.13517789  0.08886111  0.69658747     0.04200
C1411       C  0.15086792  0.10276871  0.70144675    -0.11900
C1412       C  0.17146176  0.09707870  0.69935802     0.23500
C1413       C  0.17609500  0.07710623  0.69274915    -0.12400
C1414       C  0.16040552  0.06295960  0.68870556     0.04900
C1415       C  0.18823544  0.11140657  0.70557664     0.27300
C1416       C  0.19755945  0.12468413  0.69156793    -0.13100
C1417       C  0.21428611  0.13708865  0.69742279     0.05400
C1418       C  0.22225470  0.13632980  0.71755321    -0.09100
C1419       C  0.21351483  0.12153295  0.73082182     0.06200
C1420       C  0.19606482  0.11032980  0.72533430    -0.13500
Br1421     Br  0.20403225  0.06935322  0.68849816    -0.05500
Br1422     Br  0.10718033  0.09736082  0.69812621     0.00100
Br1423     Br  0.22801203  0.15181268  0.67638224     0.00600
Br1424     Br  0.18300788  0.09267664  0.74489097    -0.03900
Br1425     Br  0.16707225  0.03555871  0.68050274     0.00700
Br1426     Br  0.14425847  0.12978913  0.71078584    -0.03200
Br1427     Br  0.18742262  0.12538996  0.66408825    -0.04000
Br1428     Br  0.22814695  0.11132167  0.75377404     0.00000
C1429       C  0.15453262  0.22744300  0.84112261     0.01400
C1430       C  0.17484742  0.22340606  0.84659841     0.04200
C1431       C  0.18936515  0.21828705  0.83157521    -0.11900
C1432       C  0.18366341  0.21700050  0.81093540     0.23500
C1433       C  0.16338512  0.22123766  0.80544795    -0.12400
C1434       C  0.14894767  0.22655785  0.82042737     0.04900
C1435       C  0.19793154  0.20795555  0.79563074     0.27300
C1436       C  0.20855071  0.21994247  0.78139053    -0.13100
C1437       C  0.22080227  0.21066042  0.76615119     0.05400
C1438       C  0.22393531  0.18920306  0.76596633    -0.09100
C1439       C  0.21281277  0.17759825  0.78042107     0.06200
C1440       C  0.19985153  0.18676384  0.79477610    -0.13500
Br1441     Br  0.15527042  0.21908964  0.77737599    -0.05500
Br1442     Br  0.18282044  0.22525879  0.87468507     0.00100
Br1443     Br  0.23104106  0.22773442  0.74493608     0.00600
Br1444     Br  0.18408263  0.17015939  0.81336469    -0.03900
Br1445     Br  0.12127828  0.23226824  0.81259896     0.00700
Br1446     Br  0.21709942  0.21263758  0.83917122    -0.03200
Br1447     Br  0.20625379  0.24917866  0.78305389    -0.04000
Br1448     Br  0.21377690  0.14869994  0.78054564     0.00000
C1449       C  0.07016729  0.36245492  0.87319099     0.01400
C1450       C  0.06951384  0.37161823  0.85383986     0.04200
C1451       C  0.06943665  0.39294181  0.85207646    -0.11900
C1452       C  0.06961249  0.40511180  0.86965665     0.23500
C1453       C  0.07017421  0.39598297  0.88901766    -0.12400
C1454       C  0.07060860  0.37466949  0.89079978     0.04900
C1455       C  0.06904791  0.42755938  0.86797030     0.27300
C1456       C  0.08727934  0.43865320  0.86688730    -0.13100
C1457       C  0.08684533  0.46003213  0.86794221     0.05400
C1458       C  0.06807699  0.47032212  0.87009855    -0.09100
C1459       C  0.04978266  0.45918085  0.86986649     0.06200
C1460       C  0.05028382  0.43782553  0.86864885    -0.13500
Br1461     Br  0.07072474  0.41279415  0.91306970    -0.05500
Br1462     Br  0.06814885  0.35495230  0.82975391     0.00100
Br1463     Br  0.11215899  0.47483507  0.86775122     0.00600
Br1464     Br  0.02533932  0.42245958  0.86799567    -0.03900
Br1465     Br  0.07297453  0.36234598  0.91732487     0.00700
Br1466     Br  0.06936330  0.40560869  0.82565467    -0.03200
Br1467     Br  0.11282707  0.42438369  0.86437468    -0.04000
Br1468     Br  0.02398810  0.47315170  0.87089941     0.00000
C1469       C  0.22567889  0.64108985  0.77328146     0.01400
C1470       C  0.21662868  0.65152429  0.79007529     0.04200
C1471       C  0.20071575  0.64289020  0.80150424    -0.11900
C1472       C  0.19506256  0.62259995  0.79858806     0.23500
C1473       C  0.20483510  0.61122266  0.78326656    -0.12400
C1474       C  0.21949837  0.62046688  0.77026904     0.04900
C1475       C  0.17940857  0.61360065  0.81257412     0.27300
C1476       C  0.18498685  0.60753021  0.83239159    -0.13100
C1477       C  0.16995360  0.60266220  0.84701014     0.05400
C1478       C  0.14913700  0.60415927  0.84208243    -0.09100
C1479       C  0.14361034  0.60999895  0.82218389     0.06200
C1480       C  0.15861649  0.61434875  0.80746671    -0.13500
Br1481     Br  0.19783695  0.58288499  0.78022829    -0.05500
Br1482     Br  0.22571599  0.67745581  0.79931319     0.00100
Br1483     Br  0.17790334  0.59336139  0.87358090     0.00600
Br1484     Br  0.15058626  0.62133273  0.78025365    -0.03900
Br1485     Br  0.23055196  0.60404573  0.74888612     0.00700
Br1486     Br  0.18594526  0.65911880  0.82127563    -0.03200
Br1487     Br  0.21339918  0.60603719  0.83938102    -0.04000
Br1488     Br  0.11524924  0.61271768  0.81521490     0.00000
C1489       C  0.70071618  0.77607896  0.84974298     0.01400
C1490       C  0.71792531  0.77449364  0.83699604     0.04200
C1491       C  0.72062090  0.75724183  0.82433155    -0.11900
C1492       C  0.70606122  0.74147122  0.82413887     0.23500
C1493       C  0.68907213  0.74287036  0.83724598    -0.12400
C1494       C  0.68664461  0.75980872  0.85022141     0.04900
C1495       C  0.70817547  0.72367765  0.80988806     0.27300
C1496       C  0.70214552  0.72535068  0.78943310    -0.13100
C1497       C  0.70226701  0.70803621  0.77651554     0.05400
C1498       C  0.71059397  0.68916307  0.78316690    -0.09100
C1499       C  0.71092411  0.68696325  0.80471536     0.06200
C1500       C  0.71239762  0.70415538  0.81749698    -0.13500
Br1501     Br  0.66838643  0.72203518  0.83674202    -0.05500
Br1502     Br  0.73724282  0.79646453  0.83606665     0.00100
Br1503     Br  0.68103167  0.70775879  0.75658682     0.00600
Br1504     Br  0.71867806  0.70051192  0.84595354    -0.03900
Br1505     Br  0.66397786  0.76041504  0.86896235     0.00700
Br1506     Br  0.74390312  0.75542274  0.80661282    -0.03200
Br1507     Br  0.69184568  0.75106821  0.77960412    -0.04000
Br1508     Br  0.69756435  0.66443553  0.81755630     0.00000
C1509       C  0.27885908  0.69378042  0.77328078     0.01400
C1510       C  0.26904804  0.71137395  0.78160653     0.04200
C1511       C  0.27865105  0.72425993  0.79572883    -0.11900
C1512       C  0.29838159  0.72018353  0.80230834     0.23500
C1513       C  0.30890889  0.70348097  0.79398779    -0.12400
C1514       C  0.29938353  0.69033072  0.77967639     0.04900
C1515       C  0.30767191  0.73397080  0.81787760     0.27300
C1516       C  0.31917032  0.75095745  0.81164447    -0.13100
C1517       C  0.32514456  0.76582896  0.82591378     0.05400
C1518       C  0.31961727  0.76392178  0.84661275    -0.09100
C1519       C  0.30860124  0.74667290  0.85293459     0.06200
C1520       C  0.30249936  0.73188956  0.83863386    -0.13500
Br1521     Br  0.33658755  0.69884727  0.80254726    -0.05500
Br1522     Br  0.24175499  0.71852348  0.77547745     0.00100
Br1523     Br  0.34037770  0.78922196  0.81684148     0.00600
Br1524     Br  0.28644663  0.70907379  0.84745957    -0.03900
Br1525     Br  0.31539006  0.66795175  0.77003109     0.00700
Br1526     Br  0.26468897  0.74800085  0.80656559    -0.03200
Br1527     Br  0.32603404  0.75418351  0.78331136    -0.04000
Br1528     Br  0.30267549  0.74280817  0.88138576     0.00000
C1529       C  0.45787665  0.83011579  0.90075832     0.01400
C1530       C  0.46964350  0.83412244  0.88333181     0.04200
C1531       C  0.49094225  0.83367941  0.88452474    -0.11900
C1532       C  0.50047469  0.82941378  0.90317780     0.23500
C1533       C  0.48871343  0.82542968  0.92062243    -0.12400
C1534       C  0.46740723  0.82538247  0.91930958     0.04900
C1535       C  0.52288842  0.82841936  0.90414953     0.27300
C1536       C  0.53283594  0.80956424  0.90167629    -0.13100
C1537       C  0.55417016  0.80869931  0.90151470     0.05400
C1538       C  0.56551868  0.82661843  0.90428672    -0.09100
C1539       C  0.55557968  0.84548121  0.90665533     0.06200
C1540       C  0.53426211  0.84639876  0.90649792    -0.13500
Br1541     Br  0.50184888  0.82009966  0.94624591    -0.05500
Br1542     Br  0.45659375  0.84022062  0.85784459     0.00100
Br1543     Br  0.56787490  0.78306512  0.89730623     0.00600
Br1544     Br  0.52057474  0.87226501  0.90914785    -0.03900
Br1545     Br  0.45127306  0.81762062  0.94254847     0.00700
Br1546     Br  0.50719901  0.83880717  0.86063864    -0.03200
Br1547     Br  0.51712815  0.78502030  0.89831859    -0.04000
Br1548     Br  0.57123338  0.87013135  0.90947247     0.00000
C1549       C  0.84206260  0.75605549  0.69063210     0.01400
C1550       C  0.84702051  0.73544210  0.69443881     0.04200
C1551       C  0.83219361  0.72171574  0.70192528    -0.11900
C1552       C  0.81200817  0.72824510  0.70533992     0.23500
C1553       C  0.80711951  0.74893163  0.70187983    -0.12400
C1554       C  0.82203016  0.76273117  0.69464622     0.04900
C1555       C  0.79648958  0.71397154  0.71445046     0.27300
C1556       C  0.78486725  0.70051218  0.70240400    -0.13100
C1557       C  0.77024253  0.68730042  0.71140953     0.05400
C1558       C  0.76682342  0.68746130  0.73270084    -0.09100
C1559       C  0.77873403  0.70110120  0.74446679     0.06200
C1560       C  0.79329035  0.71408268  0.73552297    -0.13500
Br1561     Br  0.77984216  0.75831222  0.70723013    -0.05500
Br1562     Br  0.87440788  0.72607247  0.68969552     0.00100
Br1563     Br  0.75527456  0.66909159  0.69430520     0.00600
Br1564     Br  0.80905840  0.73239319  0.75225587    -0.03900
Br1565     Br  0.81484868  0.79073712  0.68971066     0.00700
Br1566     Br  0.83961739  0.69396413  0.70798680    -0.03200
Br1567     Br  0.78894999  0.70048828  0.67342405    -0.04000
Br1568     Br  0.77552192  0.70265937  0.77320116     0.00000
C1569       C  0.85046356  0.76907245  0.29179640     0.01400
C1570       C  0.84541442  0.75159579  0.30346399     0.04200
C1571       C  0.83238313  0.73657737  0.29547989    -0.11900
C1572       C  0.82493082  0.73829558  0.27549008     0.23500
C1573       C  0.83164882  0.75451418  0.26316416    -0.12400
C1574       C  0.84355310  0.77029449  0.27149705     0.04900
C1575       C  0.80840389  0.72437195  0.26838387     0.27300
C1576       C  0.81223677  0.70384288  0.26413564    -0.13100
C1577       C  0.79595913  0.68978128  0.26247332     0.05400
C1578       C  0.77503036  0.69664417  0.26236111    -0.09100
C1579       C  0.77265820  0.71838333  0.26095722     0.06200
C1580       C  0.78853614  0.73166254  0.26646308    -0.13500
Br1581     Br  0.82413480  0.75514949  0.23485680    -0.05500
Br1582     Br  0.85642558  0.74754709  0.33038441     0.00100
Br1583     Br  0.80453531  0.66175832  0.26114903     0.00600
Br1584     Br  0.78283788  0.76008980  0.27221470    -0.03900
Br1585     Br  0.84811937  0.79454744  0.25563490     0.00700
Br1586     Br  0.82426510  0.71380618  0.31223144    -0.03200
Br1587     Br  0.84023120  0.69542912  0.26065857    -0.04000
Br1588     Br  0.74921797  0.73196586  0.25010911     0.00000
C1589       C  0.90099790  0.81057773  0.43611768     0.01400
C1590       C  0.90082087  0.82613195  0.45084331     0.04200
C1591       C  0.90194358  0.82117060  0.47157187    -0.11900
C1592       C  0.90355644  0.80066176  0.47765575     0.23500
C1593       C  0.90409647  0.78510428  0.46291976    -0.12400
C1594       C  0.90276551  0.79005906  0.44214910     0.04900
C1595       C  0.90436590  0.79573675  0.49964247     0.27300
C1596       C  0.92310814  0.79555144  0.50987730    -0.13100
C1597       C  0.92362562  0.79370032  0.53117152     0.05400
C1598       C  0.90534287  0.79293108  0.54246020    -0.09100
C1599       C  0.88660084  0.79180277  0.53199070     0.06200
C1600       C  0.88619441  0.79312482  0.51062674    -0.13500
Br1601     Br  0.90693011  0.75711618  0.47125641    -0.05500
Br1602     Br  0.89889246  0.85427374  0.44262117     0.00100
Br1603     Br  0.94951015  0.79156591  0.54474180     0.00600
Br1604     Br  0.86064436  0.79274520  0.49625710    -0.03900
Br1605     Br  0.90433571  0.76887115  0.42189691     0.00700
Br1606     Br  0.90128850  0.84246411  0.49177045    -0.03200
Br1607     Br  0.94798642  0.79906090  0.49472190    -0.04000
Br1608     Br  0.86119694  0.78997533  0.54653430     0.00000
C1609       C  0.85520881  0.62475541  0.84956368     0.01400
C1610       C  0.83563498  0.61724690  0.85410941     0.04200
C1611       C  0.81926141  0.62062924  0.84065368    -0.11900
C1612       C  0.82208260  0.63202464  0.82266223     0.23500
C1613       C  0.84150983  0.64011197  0.81843421    -0.12400
C1614       C  0.85800822  0.63633217  0.83171452     0.04900
C1615       C  0.80428759  0.63626196  0.80893575     0.27300
C1616       C  0.79750070  0.62163289  0.79490840    -0.13100
C1617       C  0.77906554  0.62446694  0.78411056     0.05400
C1618       C  0.76757514  0.64283103  0.78590926    -0.09100
C1619       C  0.77429196  0.65692065  0.80103024     0.06200
C1620       C  0.79269857  0.65398079  0.81172744    -0.13500
Br1621     Br  0.84552001  0.65597892  0.79414333    -0.05500
Br1622     Br  0.83133118  0.60209634  0.87885204     0.00100
Br1623     Br  0.76802592  0.60094702  0.77096119     0.00600
Br1624     Br  0.80226244  0.67432018  0.83068424    -0.03900
Br1625     Br  0.88469994  0.64640021  0.82517647     0.00700
Br1626     Br  0.79294835  0.60917402  0.84661839    -0.03200
Br1627     Br  0.81384679  0.59759572  0.79044938    -0.04000
Br1628     Br  0.75694898  0.67795969  0.81128774     0.00000
C1629       C  0.77716741  0.19773529  0.78060592     0.01400
C1630       C  0.78095749  0.18772687  0.79964921     0.04200
C1631       C  0.79654424  0.19405233  0.81290498    -0.11900
C1632       C  0.80990359  0.20946807  0.80720138     0.23500
C1633       C  0.80708143  0.21950381  0.78869294    -0.12400
C1634       C  0.79045817  0.21458893  0.77597449     0.04900
C1635       C  0.82651716  0.21571850  0.82119800     0.27300
C1636       C  0.82262242  0.23006525  0.83664054    -0.13100
C1637       C  0.83836158  0.23627329  0.84966725     0.05400
C1638       C  0.85822260  0.22848444  0.84706778    -0.09100
C1639       C  0.86200118  0.21380194  0.83190257     0.06200
C1640       C  0.84612328  0.20727770  0.81913162    -0.13500
Br1641     Br  0.82594599  0.24100203  0.78154603    -0.05500
Br1642     Br  0.76677597  0.16411926  0.80856528     0.00100
Br1643     Br  0.83260476  0.25540994  0.87120806     0.00600
Br1644     Br  0.85119548  0.18714479  0.79840214    -0.03900
Br1645     Br  0.78481386  0.23512230  0.75597787     0.00700
Br1646     Br  0.80019854  0.18143098  0.83931723    -0.03200
Br1647     Br  0.79574158  0.24151925  0.83958311    -0.04000
Br1648     Br  0.88918894  0.20365865  0.82773380     0.00000
C1649       C  0.91203858  0.37411594  0.89409715     0.01400
C1650       C  0.90379646  0.38534807  0.91045068     0.04200
C1651       C  0.90355208  0.40670412  0.90969175    -0.11900
C1652       C  0.91051942  0.41685709  0.89219464     0.23500
C1653       C  0.91794692  0.40569782  0.87552118    -0.12400
C1654       C  0.91923113  0.38437169  0.87665619     0.04900
C1655       C  0.91015127  0.43933209  0.89160504     0.27300
C1656       C  0.89197709  0.44960189  0.88689086    -0.13100
C1657       C  0.89085957  0.47087213  0.88892261     0.05400
C1658       C  0.90811771  0.48189519  0.89512867    -0.09100
C1659       C  0.92662012  0.47167359  0.89873957     0.06200
C1660       C  0.92758687  0.45038000  0.89713100    -0.13500
Br1661     Br  0.92631347  0.41975127  0.85118119    -0.05500
Br1662     Br  0.89178437  0.37166621  0.93348891     0.00100
Br1663     Br  0.86537514  0.48467900  0.88444300     0.00600
Br1664     Br  0.95267082  0.43623891  0.90282162    -0.03900
Br1665     Br  0.93213445  0.36954098  0.85482530     0.00700
Br1666     Br  0.89384347  0.42219814  0.93270029    -0.03200
Br1667     Br  0.86863147  0.43433439  0.87793990    -0.04000
Br1668     Br  0.95078584  0.48682348  0.90550832     0.00000
C1669       C  0.22337877  0.69482949  0.72256141     0.01400
C1670       C  0.20673852  0.70295533  0.73402834     0.04200
C1671       C  0.19301468  0.71717525  0.72577547    -0.11900
C1672       C  0.19381529  0.72223311  0.70520811     0.23500
C1673       C  0.20944310  0.71398358  0.69310996    -0.12400
C1674       C  0.22447161  0.70094347  0.70170907     0.04900
C1675       C  0.17678772  0.73469040  0.69652414     0.27300
C1676       C  0.15820257  0.72506811  0.69209180    -0.13100
C1677       C  0.14078096  0.73670818  0.68742563     0.05400
C1678       C  0.14180061  0.75823040  0.68633123    -0.09100
C1679       C  0.16045427  0.76788047  0.69085288     0.06200
C1680       C  0.17778412  0.75616658  0.69608636    -0.13500
Br1681     Br  0.20998470  0.72080839  0.66460065    -0.05500
Br1682     Br  0.20100186  0.69517950  0.76123441     0.00100
Br1683     Br  0.11510796  0.72297673  0.68404852     0.00600
Br1684     Br  0.20287737  0.76945597  0.70315078    -0.03900
Br1685     Br  0.24617398  0.69275332  0.68415764     0.00700
Br1686     Br  0.17249043  0.73006917  0.74270997    -0.03200
Br1687     Br  0.15660046  0.69569992  0.69315175    -0.04000
Br1688     Br  0.16255946  0.79710394  0.68944755     0.00000
C1689       C  0.15863899  0.77269660  0.31098132     0.01400
C1690       C  0.17597425  0.77897915  0.30000701     0.04200
C1691       C  0.19094984  0.76460638  0.29435877    -0.11900
C1692       C  0.18890603  0.74398584  0.30004585     0.23500
C1693       C  0.17141784  0.73766117  0.31061610    -0.12400
C1694       C  0.15614536  0.75182289  0.31562498     0.04900
C1695       C  0.20382202  0.72840426  0.29293656     0.27300
C1696       C  0.20076412  0.71902426  0.27417215    -0.13100
C1697       C  0.21405272  0.70364251  0.26735436     0.05400
C1698       C  0.23124346  0.69726614  0.27913284    -0.09100
C1699       C  0.23360422  0.70662509  0.29863715     0.06200
C1700       C  0.22007053  0.72213745  0.30522553    -0.13500
Br1701     Br  0.16830055  0.70935117  0.31788948    -0.05500
Br1702     Br  0.17948062  0.80727166  0.29307114     0.00100
Br1703     Br  0.20772233  0.69279953  0.24109417     0.00600
Br1704     Br  0.22367878  0.73540165  0.33117712    -0.03900
Br1705     Br  0.13110937  0.74218185  0.32753178     0.00700
Br1706     Br  0.21415017  0.77299642  0.27854992    -0.03200
Br1707     Br  0.17794199  0.72778022  0.25767067    -0.04000
Br1708     Br  0.25469777  0.69929851  0.31734381     0.00000
C1709       C  0.05936789  0.78246617  0.54783724     0.01400
C1710       C  0.07785386  0.78218873  0.53686053     0.04200
C1711       C  0.07764078  0.78322123  0.51551745    -0.11900
C1712       C  0.05908301  0.78500718  0.50505496     0.23500
C1713       C  0.04062194  0.78429664  0.51586608    -0.12400
C1714       C  0.04075596  0.78273011  0.53719194     0.04900
C1715       C  0.05920858  0.78895960  0.48285603     0.27300
C1716       C  0.06271413  0.80887815  0.47567456    -0.13100
C1717       C  0.06476151  0.81248845  0.45471209     0.05400
C1718       C  0.06294243  0.79626038  0.44085570    -0.09100
C1719       C  0.05834522  0.77656997  0.44794807     0.06200
C1720       C  0.05681946  0.77283625  0.46895320    -0.13500
Br1721     Br  0.01521003  0.78636292  0.50145038    -0.05500
Br1722     Br  0.10367498  0.78218620  0.55073059     0.00100
Br1723     Br  0.07069547  0.83954259  0.44498837     0.00600
Br1724     Br  0.05230966  0.74556410  0.47878206    -0.03900
Br1725     Br  0.01537713  0.78068516  0.55179425     0.00700
Br1726     Br  0.10285563  0.78312264  0.50046894    -0.03200
Br1727     Br  0.06529936  0.83108978  0.49469170    -0.04000
Br1728     Br  0.05402194  0.75481408  0.42879432     0.00000
C1729       C  0.85188404  0.08041221  0.69105157     0.01400
C1730       C  0.85576518  0.10137922  0.69415380     0.04200
C1731       C  0.83989763  0.11486250  0.69957487    -0.11900
C1732       C  0.82000553  0.10755716  0.70283149     0.23500
C1733       C  0.81605429  0.08663532  0.69980676    -0.12400
C1734       C  0.83179636  0.07323535  0.69355477     0.04900
C1735       C  0.80406571  0.12161287  0.71143996     0.27300
C1736       C  0.80493082  0.12679117  0.73212974    -0.13100
C1737       C  0.79162600  0.14150555  0.74033287     0.05400
C1738       C  0.77594999  0.15041354  0.72831998    -0.09100
C1739       C  0.77553100  0.14560699  0.70734521     0.06200
C1740       C  0.78951994  0.13135051  0.69898806    -0.13500
Br1741     Br  0.78901960  0.07635832  0.70429196    -0.05500
Br1742     Br  0.88308021  0.11172915  0.69171803     0.00100
Br1743     Br  0.79768783  0.15107616  0.76732426     0.00600
Br1744     Br  0.78939249  0.12563406  0.67029433    -0.03900
Br1745     Br  0.82553791  0.04531341  0.68716057     0.00700
Br1746     Br  0.84534655  0.14358206  0.70260978    -0.03200
Br1747     Br  0.82520583  0.11406905  0.74923752    -0.04000
Br1748     Br  0.75728425  0.15997874  0.68960460     0.00000
C1749       C  0.85203810  0.07168348  0.30605213     0.01400
C1750       C  0.83105051  0.06898632  0.30949395     0.04200
C1751       C  0.81719153  0.08449771  0.30438235    -0.11900
C1752       C  0.82424147  0.10298351  0.29611475     0.23500
C1753       C  0.84525255  0.10587144  0.29306538    -0.12400
C1754       C  0.85909423  0.09015661  0.29775160     0.04900
C1755       C  0.80936603  0.11826254  0.28842755     0.27300
C1756       C  0.80101996  0.11553993  0.26915822    -0.13100
C1757       C  0.78657029  0.12940115  0.26154660     0.05400
C1758       C  0.78007386  0.14683215  0.27301922    -0.09100
C1759       C  0.78838070  0.14878207  0.29301437     0.06200
C1760       C  0.80314745  0.13484793  0.30032332    -0.13500
Br1761     Br  0.85503628  0.13154354  0.28284996    -0.05500
Br1762     Br  0.82125765  0.04387259  0.32112915     0.00100
Br1763     Br  0.77690599  0.12315196  0.23489536     0.00600
Br1764     Br  0.81551236  0.13841636  0.32670612    -0.03900
Br1765     Br  0.88777986  0.09418795  0.29340769     0.00700
Br1766     Br  0.78844671  0.08048985  0.30860099    -0.03200
Br1767     Br  0.81007614  0.09246015  0.25300922    -0.04000
Br1768     Br  0.78021507  0.16947069  0.31171507     0.00000
C1769       C  0.92518938  0.03477358  0.44493039     0.01400
C1770       C  0.92406588  0.01820081  0.45847685     0.04200
C1771       C  0.92461630  0.02164837  0.47953241    -0.11900
C1772       C  0.92631104  0.04165199  0.48706952     0.23500
C1773       C  0.92707241  0.05823768  0.47357565    -0.12400
C1774       C  0.92665427  0.05480336  0.45250367     0.04900
C1775       C  0.92705360  0.04509419  0.50925505     0.27300
C1776       C  0.90885870  0.04645700  0.52042638    -0.13100
C1777       C  0.90943355  0.04710081  0.54174248     0.05400
C1778       C  0.92828571  0.04654519  0.55190700    -0.09100
C1779       C  0.94652588  0.04628643  0.54064558     0.06200
C1780       C  0.94590395  0.04564041  0.51930978    -0.13500
Br1781     Br  0.92818061  0.08561380  0.48410857    -0.05500
Br1782     Br  0.92076832  0.99086068  0.44826387     0.00100
Br1783     Br  0.88426057  0.04699722  0.55684506     0.00600
Br1784     Br  0.97078481  0.04490161  0.50377030    -0.03900
Br1785     Br  0.92863045  0.07751537  0.43403346     0.00700
Br1786     Br  0.92243514  0.99905747  0.49816960    -0.03200
Br1787     Br  0.88314185  0.04658209  0.50640814    -0.04000
Br1788     Br  0.97234526  0.04656908  0.55446975     0.00000
C1789       C  0.84459750  0.63169046  0.14557368     0.01400
C1790       C  0.82390448  0.62663257  0.14278959     0.04200
C1791       C  0.80912712  0.63227848  0.15737277    -0.11900
C1792       C  0.81480361  0.64286952  0.17512121     0.23500
C1793       C  0.83529974  0.64878067  0.17747395    -0.12400
C1794       C  0.85006391  0.64342065  0.16269768     0.04900
C1795       C  0.79967305  0.64643382  0.19198217     0.27300
C1796       C  0.78896860  0.66483532  0.19352417    -0.13100
C1797       C  0.77580682  0.66863165  0.21019881     0.05400
C1798       C  0.77079776  0.65309939  0.22464510    -0.09100
C1799       C  0.78335592  0.63513516  0.22366792     0.06200
C1800       C  0.79728324  0.63192360  0.20743698    -0.13500
Br1801     Br  0.84331274  0.66304433  0.20177527    -0.05500
Br1802     Br  0.81579076  0.61148044  0.11902967     0.00100
Br1803     Br  0.76924945  0.69659388  0.21467389     0.00600
Br1804     Br  0.81352767  0.60732473  0.20598920    -0.03900
Br1805     Br  0.87805387  0.65085604  0.16676628     0.00700
Br1806     Br  0.78117901  0.62462981  0.15346572    -0.03200
Br1807     Br  0.79277639  0.68509894  0.17257749    -0.04000
Br1808     Br  0.78408025  0.61479391  0.24444947     0.00000
C1809       C  0.85716205  0.23611186  0.15370326     0.01400
C1810       C  0.83841474  0.22933413  0.14582046     0.04200
C1811       C  0.82222566  0.22432363  0.15908692    -0.11900
C1812       C  0.82461182  0.22596113  0.18034594     0.23500
C1813       C  0.84363428  0.23189464  0.18821017    -0.12400
C1814       C  0.85977693  0.23688897  0.17500580     0.04900
C1815       C  0.80878107  0.21754798  0.19442670     0.27300
C1816       C  0.79227927  0.22920832  0.20158494    -0.13100
C1817       C  0.77787941  0.22076967  0.21541869     0.05400
C1818       C  0.77984179  0.20022811  0.22246798    -0.09100
C1819       C  0.79704957  0.18909889  0.21498705     0.06200
C1820       C  0.81086119  0.19746386  0.20095470    -0.13500
Br1821     Br  0.84794692  0.23184917  0.21722772    -0.05500
Br1822     Br  0.83483361  0.22683361  0.11689022     0.00100
Br1823     Br  0.75572140  0.23806375  0.22333700     0.00600
Br1824     Br  0.83307250  0.18121590  0.18997951    -0.03900
Br1825     Br  0.88606973  0.24338605  0.18622674     0.00700
Br1826     Br  0.79698918  0.21423072  0.14826727    -0.03200
Br1827     Br  0.78933617  0.25672866  0.19173180    -0.04000
Br1828     Br  0.80315841  0.16193652  0.22286440     0.00000
C1829       C  0.91729969  0.48561459  0.11754094     0.01400
C1830       C  0.91946368  0.47395890  0.13534282     0.04200
C1831       C  0.92073948  0.45262998  0.13404416    -0.11900
C1832       C  0.92034290  0.44303382  0.11490548     0.23500
C1833       C  0.91840382  0.45472049  0.09709430    -0.12400
C1834       C  0.91649269  0.47596929  0.09843228     0.04900
C1835       C  0.92173878  0.42060676  0.11353016     0.27300
C1836       C  0.94087270  0.41101752  0.11322439    -0.13100
C1837       C  0.94216201  0.38965908  0.11265114     0.05400
C1838       C  0.92428491  0.37786566  0.11173438    -0.09100
C1839       C  0.90512512  0.38757926  0.11143618     0.06200
C1840       C  0.90388164  0.40891238  0.11257389    -0.13500
Br1841     Br  0.91888466  0.44157890  0.07088521    -0.05500
Br1842     Br  0.92147165  0.48728750  0.16135881     0.00100
Br1843     Br  0.96843698  0.37664930  0.11406866     0.00600
Br1844     Br  0.87773912  0.42229526  0.11259519    -0.03900
Br1845     Br  0.91236874  0.49183737  0.07409733     0.00700
Br1846     Br  0.92331974  0.43647539  0.15837555    -0.03200
Br1847     Br  0.96525573  0.42728685  0.11332042    -0.04000
Br1848     Br  0.88054251  0.37192114  0.10830580     0.00000
C1849       C  0.69467108  0.78528619  0.16083664     0.01400
C1850       C  0.71163424  0.78739794  0.17379030     0.04200
C1851       C  0.71753496  0.77121714  0.18674489    -0.11900
C1852       C  0.70620697  0.75299209  0.18726903     0.23500
C1853       C  0.68955961  0.75071462  0.17401005    -0.12400
C1854       C  0.68390069  0.76666298  0.16081858     0.04900
C1855       C  0.71158768  0.73594587  0.20149168     0.27300
C1856       C  0.72185648  0.71891701  0.19409844    -0.13100
C1857       C  0.72296412  0.70083644  0.20569137     0.05400
C1858       C  0.71848697  0.70057140  0.22718598    -0.09100
C1859       C  0.70710691  0.71814300  0.23403382     0.06200
C1860       C  0.70359856  0.73525876  0.22120664    -0.13500
Br1861     Br  0.67432870  0.72559381  0.17411949    -0.05500
Br1862     Br  0.72596753  0.81293074  0.17481474     0.00100
Br1863     Br  0.72727231  0.67729056  0.18907857     0.00600
Br1864     Br  0.68770608  0.75838950  0.23036136    -0.03900
Br1865     Br  0.66145537  0.76267333  0.14242434     0.00700
Br1866     Br  0.74110962  0.77389916  0.20383794    -0.03200
Br1867     Br  0.73410244  0.72052936  0.16732182    -0.04000
Br1868     Br  0.69375289  0.71980355  0.25977133     0.00000
C1869       C  0.31898581  0.77074244  0.15578721     0.01400
C1870       C  0.32420382  0.77257021  0.17658436     0.04200
C1871       C  0.31961974  0.75682413  0.19046176    -0.11900
C1872       C  0.30889461  0.73943558  0.18403791     0.23500
C1873       C  0.30316564  0.73779410  0.16342799    -0.12400
C1874       C  0.30854474  0.75311445  0.14929955     0.04900
C1875       C  0.30073547  0.72478201  0.19952471     0.27300
C1876       C  0.31244691  0.70865739  0.20734701    -0.13100
C1877       C  0.30446120  0.69553979  0.22260092     0.05400
C1878       C  0.28378782  0.69711550  0.22906185    -0.09100
C1879       C  0.27276612  0.71441815  0.22156459     0.06200
C1880       C  0.28119858  0.72795903  0.20722411    -0.13500
Br1881     Br  0.28726936  0.71476905  0.15473984    -0.05500
Br1882     Br  0.33625609  0.79737762  0.18663030     0.00100
Br1883     Br  0.32296848  0.67671140  0.23470330     0.00600
Br1884     Br  0.26596998  0.75149772  0.19779394    -0.03900
Br1885     Br  0.30224131  0.74936821  0.12095328     0.00700
Br1886     Br  0.32732997  0.75933631  0.21863355    -0.03200
Br1887     Br  0.33941553  0.70442345  0.19657676    -0.04000
Br1888     Br  0.24582633  0.72115566  0.23000421     0.00000
C1889       C  0.45385454  0.84183541  0.09285020     0.01400
C1890       C  0.46061300  0.86213839  0.09414226     0.04200
C1891       C  0.48140838  0.86624077  0.09670885    -0.11900
C1892       C  0.49543236  0.85007634  0.09798316     0.23500
C1893       C  0.48877483  0.82983301  0.09575377    -0.12400
C1894       C  0.46798059  0.82571031  0.09329254     0.04900
C1895       C  0.51708690  0.85431937  0.10233026     0.27300
C1896       C  0.53092401  0.85719091  0.08629074    -0.13100
C1897       C  0.55163808  0.86041924  0.09045227     0.05400
C1898       C  0.55845303  0.86150057  0.11081980    -0.09100
C1899       C  0.54433354  0.85930680  0.12684212     0.06200
C1900       C  0.52379562  0.85534487  0.12258959    -0.13500
Br1901     Br  0.50821307  0.80782590  0.09606996    -0.05500
Br1902     Br  0.44134122  0.88428569  0.09321262     0.00100
Br1903     Br  0.57052452  0.86185815  0.06802726     0.00600
Br1904     Br  0.50475362  0.85104928  0.14450173    -0.03900
Br1905     Br  0.45881526  0.79799402  0.09023132     0.00700
Br1906     Br  0.49081186  0.89394634  0.09862586    -0.03200
Br1907     Br  0.52132490  0.85637150  0.05860985    -0.04000
Br1908     Br  0.55283216  0.86260757  0.15469850     0.00000
C1909       C  0.67741235  0.06939836  0.83667636     0.01400
C1910       C  0.67937304  0.06648998  0.81547623     0.04200
C1911       C  0.68434444  0.08297783  0.80263198    -0.11900
C1912       C  0.68720568  0.10264400  0.81074807     0.23500
C1913       C  0.68371287  0.10580245  0.83170886    -0.12400
C1914       C  0.67889098  0.08928677  0.84459733     0.04900
C1915       C  0.69800127  0.11842152  0.79827470     0.27300
C1916       C  0.71919320  0.11709529  0.79674391    -0.13100
C1917       C  0.73007041  0.13072828  0.78436293     0.05400
C1918       C  0.72035265  0.14764828  0.77484457    -0.09100
C1919       C  0.69880136  0.14838146  0.77576570     0.06200
C1920       C  0.68772486  0.13361543  0.78708696    -0.13500
Br1921     Br  0.68552763  0.13271645  0.84294437    -0.05500
Br1922     Br  0.67584710  0.03971728  0.80397544     0.00100
Br1923     Br  0.75811792  0.12437659  0.78025580     0.00600
Br1924     Br  0.65848773  0.13378100  0.78701396    -0.03900
Br1925     Br  0.67339326  0.09408229  0.87300301     0.00700
Br1926     Br  0.68813749  0.07859501  0.77388075    -0.03200
Br1927     Br  0.73345581  0.09621086  0.81197128    -0.04000
Br1928     Br  0.68419189  0.16935084  0.76171712     0.00000
C1929       C  0.29526809  0.07017729  0.84924603     0.01400
C1930       C  0.30713571  0.06965836  0.83137714     0.04200
C1931       C  0.30368109  0.08374703  0.81563975    -0.11900
C1932       C  0.28720972  0.09748543  0.81677244     0.23500
C1933       C  0.27392245  0.09648749  0.83361767    -0.12400
C1934       C  0.27814688  0.08313989  0.84999793     0.04900
C1935       C  0.28351897  0.11194998  0.79955447     0.27300
C1936       C  0.29350957  0.13091925  0.79863334    -0.13100
C1937       C  0.29174188  0.14342193  0.78107276     0.05400
C1938       C  0.27923709  0.13730948  0.76451719    -0.09100
C1939       C  0.27518463  0.11615707  0.76389934     0.06200
C1940       C  0.27392830  0.10482222  0.78195392    -0.13500
Br1941     Br  0.25017160  0.11361768  0.83429287    -0.05500
Br1942     Br  0.32783377  0.04902854  0.82822361     0.00100
Br1943     Br  0.31234562  0.16373133  0.77736564     0.00600
Br1944     Br  0.26261956  0.07774646  0.78124621    -0.03900
Br1945     Br  0.26088928  0.08302838  0.87364770     0.00700
Br1946     Br  0.32207951  0.08469896  0.79278838    -0.03200
Br1947     Br  0.30997954  0.13943689  0.82129366    -0.04000
Br1948     Br  0.28793282  0.10071698  0.74275757     0.00000
C1949       C  0.43927896  0.03928946  0.91221368     0.01400
C1950       C  0.45391144  0.03993850  0.92789006     0.04200
C1951       C  0.47457007  0.03667227  0.92342140    -0.11900
C1952       C  0.48075676  0.03290089  0.90329686     0.23500
C1953       C  0.46643865  0.03321620  0.88749607    -0.12400
C1954       C  0.44570265  0.03611613  0.89190201     0.04900
C1955       C  0.50210042  0.02709722  0.89906823     0.27300
C1956       C  0.51675083  0.04214379  0.89503047    -0.13100
C1957       C  0.53734365  0.03670249  0.89326341     0.05400
C1958       C  0.54313229  0.01602653  0.89430113    -0.09100
C1959       C  0.52832016  0.00089213  0.89744014     0.06200
C1960       C  0.50786841  0.00645370  0.90010442    -0.13500
Br1961     Br  0.47538001  0.02900897  0.85986320    -0.05500
Br1962     Br  0.44585886  0.04546531  0.95556339     0.00100
Br1963     Br  0.55766562  0.05777255  0.89132472     0.00600
Br1964     Br  0.48768790  0.98586009  0.90546792    -0.03900
Br1965     Br  0.42630129  0.03370407  0.87008874     0.00700
Br1966     Br  0.49452845  0.03684555  0.94488368    -0.03200
Br1967     Br  0.50851312  0.07016677  0.89202208    -0.04000
Br1968     Br  0.53599774  0.97251351  0.89788959     0.00000
C1969       C  0.68616334  0.07423014  0.15334630     0.01400
C1970       C  0.69576740  0.06784265  0.17134956     0.04200
C1971       C  0.70261262  0.08232003  0.18554783    -0.11900
C1972       C  0.69982839  0.10331172  0.18186883     0.23500
C1973       C  0.68999363  0.10966971  0.16392908    -0.12400
C1974       C  0.68313773  0.09516435  0.14974591     0.04900
C1975       C  0.70881167  0.11876927  0.19582207     0.27300
C1976       C  0.69798426  0.12622815  0.21262939    -0.13100
C1977       C  0.70657373  0.14127558  0.22545675     0.05400
C1978       C  0.72681894  0.14849270  0.22227628    -0.09100
C1979       C  0.73687104  0.14136463  0.20430645     0.06200
C1980       C  0.72802951  0.12665752  0.19148993    -0.13500
Br1981     Br  0.68602784  0.13833295  0.15884525    -0.05500
Br1982     Br  0.69931942  0.03914883  0.17660475     0.00100
Br1983     Br  0.68917816  0.15180499  0.24614126     0.00600
Br1984     Br  0.74229148  0.11681906  0.16758815    -0.03900
Br1985     Br  0.66918514  0.10388947  0.12553602     0.00700
Br1986     Br  0.71578092  0.07329013  0.21000316    -0.03200
Br1987     Br  0.67123371  0.11533676  0.21797135    -0.04000
Br1988     Br  0.76293070  0.15094425  0.19584081     0.00000
C1989       C  0.31231431  0.07388412  0.14606117     0.01400
C1990       C  0.29171184  0.07761924  0.15103862     0.04200
C1991       C  0.28644274  0.09385275  0.16416465    -0.11900
C1992       C  0.30168895  0.10561764  0.17356075     0.23500
C1993       C  0.32215059  0.10240293  0.16812799    -0.12400
C1994       C  0.32732289  0.08732679  0.15375494     0.04900
C1995       C  0.29639674  0.11922755  0.19105440     0.27300
C1996       C  0.29738026  0.14042675  0.18948396    -0.13100
C1997       C  0.29413353  0.15272858  0.20678384     0.05400
C1998       C  0.28409893  0.14485682  0.22458983    -0.09100
C1999       C  0.28398408  0.12279809  0.22596399     0.06200
C2000       C  0.29163218  0.11060867  0.20989811    -0.13500
Br2001     Br  0.34334124  0.11735980  0.18182729    -0.05500
Br2002     Br  0.27069443  0.05940542  0.14193747     0.00100
Br2003     Br  0.30990831  0.17731882  0.20664148     0.00600
Br2004     Br  0.29633043  0.08161112  0.21342957    -0.03900
Br2005     Br  0.35516816  0.08557803  0.14452499     0.00700
Br2006     Br  0.25830295  0.09930749  0.17048517    -0.03200
Br2007     Br  0.30365402  0.15273455  0.16356528    -0.04000
Br2008     Br  0.27397229  0.10675415  0.24836815     0.00000
C2009       C  0.43969369  0.97970058  0.12452696     0.01400
C2010       C  0.45177588  0.97713338  0.14199578     0.04200
C2011       C  0.47276420  0.98103335  0.14111412    -0.11900
C2012       C  0.48186506  0.98647185  0.12252083     0.23500
C2013       C  0.46999567  0.98801798  0.10483419    -0.12400
C2014       C  0.44886328  0.98527615  0.10592504     0.04900
C2015       C  0.50400098  0.99020518  0.12136733     0.27300
C2016       C  0.51154484  0.01026125  0.12192087    -0.13100
C2017       C  0.53244823  0.01381899  0.11931494     0.05400
C2018       C  0.54589263  0.99725175  0.11685134    -0.09100
C2019       C  0.53839225  0.97717109  0.11710474     0.06200
C2020       C  0.51742311  0.97369605  0.11885037    -0.13500
Br2021     Br  0.48285079  0.99372577  0.07907375    -0.05500
Br2022     Br  0.43968123  0.96753937  0.16691538     0.00100
Br2023     Br  0.54238242  0.04141156  0.11770139     0.00600
Br2024     Br  0.50688041  0.94640504  0.11687867    -0.03900
Br2025     Br  0.43257485  0.99054459  0.08213372     0.00700
Br2026     Br  0.48911214  0.97914480  0.16532654    -0.03200
Br2027     Br  0.49309924  0.03283089  0.12563173    -0.04000
Br2028     Br  0.55686279  0.95436041  0.11562305     0.00000
C2029       C  0.15854320  0.61181886  0.15266062     0.01400
C2030       C  0.17959737  0.60888882  0.14967389     0.04200
C2031       C  0.19363597  0.61474372  0.16476422    -0.11900
C2032       C  0.18682820  0.62361829  0.18308633     0.23500
C2033       C  0.16581167  0.62718854  0.18579270    -0.12400
C2034       C  0.15174063  0.62126189  0.17069014     0.04900
C2035       C  0.20199507  0.63082095  0.19853715     0.27300
C2036       C  0.20864028  0.61825211  0.21449237    -0.13100
C2037       C  0.22324171  0.62526238  0.22886104     0.05400
C2038       C  0.23193360  0.64524376  0.22731347    -0.09100
C2039       C  0.22604167  0.65670865  0.20969675     0.06200
C2040       C  0.21070452  0.65003419  0.19630404    -0.13500
Br2041     Br  0.15629773  0.64019403  0.21023958    -0.05500
Br2042     Br  0.18923682  0.59702081  0.12462686     0.00100
Br2043     Br  0.23039106  0.60634040  0.24979433     0.00600
Br2044     Br  0.20116750  0.66733981  0.17437175    -0.03900
Br2045     Br  0.12304450  0.62533129  0.17503428     0.00700
Br2046     Br  0.22234232  0.61067359  0.16036506    -0.03200
Br2047     Br  0.19720362  0.59124722  0.21645003    -0.04000
Br2048     Br  0.23857274  0.68163404  0.20190417     0.00000
C2049       C  0.15029814  0.21144080  0.15258148     0.01400
C2050       C  0.16717229  0.22336688  0.15859161     0.04200
C2051       C  0.18106139  0.21590971  0.17306487    -0.11900
C2052       C  0.17853889  0.19635052  0.18144216     0.23500
C2053       C  0.16275342  0.18378228  0.17426670    -0.12400
C2054       C  0.14873246  0.19122753  0.15980811     0.04900
C2055       C  0.19337843  0.18873136  0.19685613     0.27300
C2056       C  0.21094443  0.17859782  0.19051642    -0.13100
C2057       C  0.22639525  0.17361275  0.20457779     0.05400
C2058       C  0.22519379  0.18021544  0.22547049    -0.09100
C2059       C  0.20534427  0.18676593  0.23201856     0.06200
C2060       C  0.19010972  0.19182479  0.21767268    -0.13500
Br2061     Br  0.16043587  0.15634431  0.18441336    -0.05500
Br2062     Br  0.17225413  0.24951292  0.14610839     0.00100
Br2063     Br  0.24809272  0.15731722  0.19318438     0.00600
Br2064     Br  0.16454063  0.20359348  0.22624858    -0.03900
Br2065     Br  0.12722260  0.17372497  0.15044918     0.00700
Br2066     Br  0.20381497  0.23242320  0.18139444    -0.03200
Br2067     Br  0.21398048  0.17253814  0.16182046    -0.04000
Br2068     Br  0.19703792  0.18807571  0.26015194     0.00000
C2069       C  0.09572747  0.35815339  0.11611530     0.01400
C2070       C  0.11270137  0.36858257  0.12395978     0.04200
C2071       C  0.11225464  0.38994179  0.12562284    -0.11900
C2072       C  0.09511318  0.40088520  0.11887136     0.23500
C2073       C  0.07791173  0.39041476  0.11173863    -0.12400
C2074       C  0.07806558  0.36906899  0.11075210     0.04900
C2075       C  0.09570927  0.42337728  0.11761908     0.27300
C2076       C  0.08619365  0.43540663  0.13260978    -0.13100
C2077       C  0.08622488  0.45674949  0.13080105     0.05400
C2078       C  0.09524975  0.46600200  0.11373605    -0.09100
C2079       C  0.10452598  0.45396637  0.09863764     0.06200
C2080       C  0.10494036  0.43268689  0.10067316    -0.13500
Br2081     Br  0.05446238  0.40542938  0.10244652    -0.05500
Br2082     Br  0.13708105  0.35386450  0.13103276     0.00100
Br2083     Br  0.07352987  0.47334746  0.15140419     0.00600
Br2084     Br  0.11762712  0.41616953  0.07994366    -0.03900
Br2085     Br  0.05385059  0.35480664  0.10243705     0.00700
Br2086     Br  0.13533231  0.40437880  0.13642578    -0.03200
Br2087     Br  0.07253002  0.42255810  0.15515182    -0.04000
Br2088     Br  0.11644033  0.46665638  0.07502817     0.00000
C2089       C  0.27656561  0.19822168  0.22967575     0.01400
C2090       C  0.27419096  0.21118198  0.21214815     0.04200
C2091       C  0.28568060  0.22925689  0.20974463    -0.11900
C2092       C  0.29960244  0.23528677  0.22455027     0.23500
C2093       C  0.30193792  0.22351644  0.24200565    -0.12400
C2094       C  0.29066080  0.20540226  0.24463741     0.04900
C2095       C  0.31202659  0.25402909  0.22157134     0.27300
C2096       C  0.33086903  0.25287239  0.21141751    -0.13100
C2097       C  0.34197922  0.27072264  0.20732163     0.05400
C2098       C  0.33404004  0.28991548  0.21282728    -0.09100
C2099       C  0.31555174  0.29099345  0.22366785     0.06200
C2100       C  0.30474524  0.27305831  0.22833890    -0.13500
Br2101     Br  0.32103843  0.23276803  0.26239992    -0.05500
Br2102     Br  0.25661271  0.20550220  0.18987586     0.00100
Br2103     Br  0.36764073  0.26892538  0.19322482     0.00600
Br2104     Br  0.27972195  0.27440415  0.24361645    -0.03900
Br2105     Br  0.29562254  0.19182191  0.26944705     0.00700
Br2106     Br  0.28287356  0.24625078  0.18577816    -0.03200
Br2107     Br  0.34100860  0.22683527  0.20237452    -0.04000
Br2108     Br  0.30483886  0.31710811  0.23170218     0.00000
C2109       C  0.32912348  0.26202964  0.82201819     0.01400
C2110       C  0.33779497  0.24254855  0.81943793     0.04200
C2111       C  0.32582169  0.22608059  0.81255657    -0.11900
C2112       C  0.30496692  0.22887460  0.80828382     0.23500
C2113       C  0.29608223  0.24813303  0.81191460    -0.12400
C2114       C  0.30803136  0.26453826  0.81893103     0.04900
C2115       C  0.29321738  0.21311987  0.79666913     0.27300
C2116       C  0.29183817  0.21521380  0.77555263    -0.13100
C2117       C  0.27946055  0.20207312  0.76408608     0.05400
C2118       C  0.26915384  0.18524887  0.77315574    -0.09100
C2119       C  0.27001436  0.18376358  0.79472223     0.06200
C2120       C  0.28222304  0.19739100  0.80628116    -0.13500
Br2121     Br  0.26755361  0.25214496  0.80638973    -0.05500
Br2122     Br  0.36600245  0.23830804  0.82612510     0.00100
Br2123     Br  0.27633200  0.20913027  0.73612477     0.00600
Br2124     Br  0.28447336  0.19434584  0.83529388    -0.03900
Br2125     Br  0.29547357  0.29057986  0.82412832     0.00700
Br2126     Br  0.33815347  0.19979410  0.80869237    -0.03200
Br2127     Br  0.30733389  0.23651924  0.76225833    -0.04000
Br2128     Br  0.25453297  0.16353230  0.80889558     0.00000
C2129       C  0.36155673  0.34712824  0.95923989     0.01400
C2130       C  0.37782636  0.34291243  0.97248522     0.04200
C2131       C  0.37536631  0.34560205  0.99351222    -0.11900
C2132       C  0.35674792  0.35278058  0.00133812     0.23500
C2133       C  0.34067970  0.35756796  0.98808407    -0.12400
C2134       C  0.34296088  0.35442131  0.96705684     0.04900
C2135       C  0.35401419  0.35437378  0.02361193     0.27300
C2136       C  0.34818591  0.33705668  0.03479698    -0.13100
C2137       C  0.34884917  0.33739952  0.05615670     0.05400
C2138       C  0.35500423  0.35526305  0.06633869    -0.09100
C2139       C  0.35893924  0.37312547  0.05509511     0.06200
C2140       C  0.35886486  0.37257130  0.03375495    -0.13500
Br2141     Br  0.31572105  0.36861548  0.99883527    -0.05500
Br2142     Br  0.40324706  0.33260826  0.96196499     0.00100
Br2143     Br  0.34293880  0.31286273  0.07112748     0.00600
Br2144     Br  0.36656999  0.39633163  0.01836326    -0.03900
Br2145     Br  0.32073080  0.36035466  0.94894809     0.00700
Br2146     Br  0.39743844  0.33928277  0.01173888    -0.03200
Br2147     Br  0.34051791  0.31250962  0.02064837    -0.04000
Br2148     Br  0.36424813  0.39844554  0.06896860     0.00000
C2149       C  0.24350026  0.19954130  0.27485857     0.01400
C2150       C  0.25077148  0.19912847  0.29553593     0.04200
C2151       C  0.24628749  0.21508934  0.30930607    -0.11900
C2152       C  0.23540027  0.23224848  0.30300966     0.23500
C2153       C  0.23084355  0.23451193  0.28235226    -0.12400
C2154       C  0.23586493  0.21901286  0.26819094     0.04900
C2155       C  0.22816790  0.24743659  0.31843169     0.27300
C2156       C  0.21109660  0.24281299  0.33051160    -0.13100
C2157       C  0.20457301  0.25638397  0.34577247     0.05400
C2158       C  0.21422989  0.27545696  0.34834341    -0.09100
C2159       C  0.23159943  0.27993387  0.33650261     0.06200
C2160       C  0.23870708  0.26583894  0.32182437    -0.13500
Br2161     Br  0.21676678  0.25890631  0.27374353    -0.05500
Br2162     Br  0.26773282  0.17810038  0.30690301     0.00100
Br2163     Br  0.18300471  0.24808292  0.36389526     0.00600
Br2164     Br  0.26274347  0.27176368  0.30612015    -0.03900
Br2165     Br  0.23325774  0.22681518  0.24003788     0.00700
Br2166     Br  0.25422817  0.21338585  0.33764734    -0.03200
Br2167     Br  0.19630533  0.21789860  0.32576503    -0.04000
Br2168     Br  0.24515750  0.30572220  0.33961802     0.00000
C2169       C  0.81914853  0.26417940  0.34939150     0.01400
C2170       C  0.80610578  0.24773396  0.35382594     0.04200
C2171       C  0.80046965  0.23385220  0.33838849    -0.11900
C2172       C  0.80794219  0.23609835  0.31831872     0.23500
C2173       C  0.82058010  0.25280255  0.31380708    -0.12400
C2174       C  0.82612181  0.26673139  0.32917329     0.04900
C2175       C  0.80024907  0.22276848  0.30142023     0.27300
C2176       C  0.81210140  0.20708203  0.29281181    -0.13100
C2177       C  0.80420619  0.19449667  0.27705554     0.05400
C2178       C  0.78378432  0.19693044  0.27001146    -0.09100
C2179       C  0.77299337  0.21417972  0.27788439     0.06200
C2180       C  0.78110553  0.22676523  0.29321333    -0.13500
Br2181     Br  0.82956207  0.25708299  0.28619480    -0.05500
Br2182     Br  0.79639510  0.24379774  0.38120525     0.00100
Br2183     Br  0.82231416  0.17455237  0.26592333     0.00600
Br2184     Br  0.76604531  0.25020524  0.30317422    -0.03900
Br2185     Br  0.84246392  0.29004353  0.32205712     0.00700
Br2186     Br  0.78197286  0.21205701  0.34471754    -0.03200
Br2187     Br  0.83922648  0.20278146  0.30309816    -0.04000
Br2188     Br  0.74667409  0.22185244  0.26878599     0.00000
C2189       C  0.06793556  0.32218266  0.40404266     0.01400
C2190       C  0.05629869  0.30449426  0.40099705     0.04200
C2191       C  0.03496023  0.30571087  0.40087293    -0.11900
C2192       C  0.02521712  0.32461361  0.40394039     0.23500
C2193       C  0.03689072  0.34231330  0.40696189    -0.12400
C2194       C  0.05822715  0.34111537  0.40690561     0.04900
C2195       C  0.00269748  0.32582141  0.40390648     0.27300
C2196       C  0.99233602  0.33195540  0.38621338    -0.13100
C2197       C  0.97095266  0.33237287  0.38595375     0.05400
C2198       C  0.95988023  0.32660423  0.40336748    -0.09100
C2199       C  0.97025936  0.32038135  0.42101880     0.06200
C2200       C  0.99162553  0.32039712  0.42142457    -0.13500
Br2201     Br  0.02357467  0.36813707  0.41135023    -0.05500
Br2202     Br  0.06963811  0.27851569  0.39768963     0.00100
Br2203     Br  0.95682782  0.34111468  0.36184515     0.00600
Br2204     Br  0.00581012  0.31347539  0.44610037    -0.03900
Br2205     Br  0.07419287  0.36548340  0.41032777     0.00700
Br2206     Br  0.01901121  0.28148284  0.39660112    -0.03200
Br2207     Br  0.00754670  0.34007034  0.36247436    -0.04000
Br2208     Br  0.95519492  0.31086471  0.44431536     0.00000
C2209       C  0.35790636  0.11544997  0.34935779     0.01400
C2210       C  0.34255609  0.10115506  0.34469318     0.04200
C2211       C  0.32584302  0.10676423  0.33253826    -0.11900
C2212       C  0.32307222  0.12723069  0.32661967     0.23500
C2213       C  0.33667326  0.14211112  0.33409793    -0.12400
C2214       C  0.35444204  0.13620114  0.34470291     0.04900
C2215       C  0.30880655  0.13234117  0.30952216     0.27300
C2216       C  0.31685142  0.13628193  0.29021567    -0.13100
C2217       C  0.30413329  0.14265990  0.27400849     0.05400
C2218       C  0.28209952  0.14208954  0.27582650    -0.09100
C2219       C  0.27503088  0.13264230  0.29422015     0.06200
C2220       C  0.28765779  0.13097257  0.31151670    -0.13500
Br2221     Br  0.33170356  0.17047293  0.32820966    -0.05500
Br2222     Br  0.34410412  0.07375677  0.35521828     0.00100
Br2223     Br  0.31970661  0.15162157  0.25089039     0.00600
Br2224     Br  0.27573364  0.12656019  0.33796823    -0.03900
Br2225     Br  0.37482470  0.15636261  0.35073364     0.00700
Br2226     Br  0.30816501  0.08582061  0.32212804    -0.03200
Br2227     Br  0.34587488  0.13204967  0.28616971    -0.04000
Br2228     Br  0.25162161  0.11528343  0.29512765     0.00000
C2229       C  0.36035305  0.73798339  0.34203587     0.01400
C2230       C  0.34145114  0.73232462  0.35053514     0.04200
C2231       C  0.32532127  0.72597071  0.33785508    -0.11900
C2232       C  0.32765952  0.72583607  0.31652927     0.23500
C2233       C  0.34645240  0.73160711  0.30802779    -0.12400
C2234       C  0.36282780  0.73713530  0.32067919     0.04900
C2235       C  0.31142785  0.71721227  0.30309493     0.27300
C2236       C  0.31223859  0.69660438  0.29790379    -0.13100
C2237       C  0.29808928  0.68822765  0.28419759     0.05400
C2238       C  0.28156108  0.69993508  0.27614082    -0.09100
C2239       C  0.28114261  0.72106157  0.28157447     0.06200
C2240       C  0.29606349  0.72948291  0.29472695    -0.13500
Br2241     Br  0.34970674  0.73167503  0.27886544    -0.05500
Br2242     Br  0.33724652  0.73403239  0.37947259     0.00100
Br2243     Br  0.30310401  0.66051638  0.27682409     0.00600
Br2244     Br  0.29569785  0.75806479  0.30166997    -0.03900
Br2245     Br  0.38909800  0.74219927  0.30863446     0.00700
Br2246     Br  0.29999481  0.71717853  0.34964062    -0.03200
Br2247     Br  0.33333699  0.67981011  0.30988905    -0.04000
Br2248     Br  0.26057116  0.73943002  0.27230027     0.00000
C2249       C  0.44981585  0.87405584  0.36827469     0.01400
C2250       C  0.44747327  0.88742951  0.38493598     0.04200
C2251       C  0.44896850  0.90857207  0.38200818    -0.11900
C2252       C  0.45205946  0.91650007  0.36237374     0.23500
C2253       C  0.45423303  0.90324099  0.34571631    -0.12400
C2254       C  0.45350933  0.88203774  0.34870638     0.04900
C2255       C  0.45238225  0.93885928  0.35933705     0.27300
C2256       C  0.43402271  0.94946807  0.35658099    -0.13100
C2257       C  0.43382413  0.97088867  0.35640350     0.05400
C2258       C  0.45227557  0.98186505  0.35784094    -0.09100
C2259       C  0.47082544  0.97100046  0.35947759     0.06200
C2260       C  0.47079210  0.94959128  0.36061323    -0.13500
Br2261     Br  0.45774703  0.91427816  0.31879588    -0.05500
Br2262     Br  0.44079673  0.87714572  0.41161435     0.00100
Br2263     Br  0.40786481  0.98462638  0.35662236     0.00600
Br2264     Br  0.49583653  0.93479397  0.36469288    -0.03900
Br2265     Br  0.45840054  0.86397987  0.32609662     0.00700
Br2266     Br  0.44640620  0.92685500  0.40484977    -0.03200
Br2267     Br  0.40899784  0.93442103  0.35385174    -0.04000
Br2268     Br  0.49647564  0.98520665  0.36010788     0.00000
C2269       C  0.36272489  0.57761460  0.20208086     0.01400
C2270       C  0.34271547  0.57290882  0.19611784     0.04200
C2271       C  0.32651978  0.58607040  0.20123507    -0.11900
C2272       C  0.33028293  0.60429424  0.21193238     0.23500
C2273       C  0.35025765  0.60868458  0.21835330    -0.12400
C2274       C  0.36638971  0.59539551  0.21344020     0.04900
C2275       C  0.31311442  0.61838163  0.21709952     0.27300
C2276       C  0.30746033  0.63426184  0.20397067    -0.13100
C2277       C  0.29125244  0.64767190  0.20904777     0.05400
C2278       C  0.28088702  0.64603399  0.22811151    -0.09100
C2279       C  0.28623984  0.62881910  0.24046272     0.06200
C2280       C  0.30211527  0.61539611  0.23500390    -0.13500
Br2281     Br  0.35562882  0.63300943  0.23370824    -0.05500
Br2282     Br  0.33768920  0.54889028  0.18007646     0.00100
Br2283     Br  0.28367742  0.66703962  0.18863071     0.00600
Br2284     Br  0.30943372  0.59262909  0.25231063    -0.03900
Br2285     Br  0.39374293  0.60173422  0.22177947     0.00700
Br2286     Br  0.29911945  0.57929665  0.19348446    -0.03200
Br2287     Br  0.32251794  0.63756375  0.17895661    -0.04000
Br2288     Br  0.27323377  0.62257749  0.26572337     0.00000
C2289       C  0.27288704  0.64458226  0.77757025     0.01400
C2290       C  0.28060181  0.62731144  0.76671075     0.04200
C2291       C  0.29386854  0.61297512  0.77567524    -0.11900
C2292       C  0.30056582  0.61543787  0.79565885     0.23500
C2293       C  0.29308926  0.63200889  0.80701615    -0.12400
C2294       C  0.27931642  0.64633253  0.79827638     0.04900
C2295       C  0.31568897  0.60046112  0.80418801     0.27300
C2296       C  0.30921704  0.58106795  0.81086735    -0.13100
C2297       C  0.32357576  0.56591128  0.81618918     0.05400
C2298       C  0.34457657  0.57008515  0.81538624    -0.09100
C2299       C  0.35105931  0.58944113  0.80876338     0.06200
C2300       C  0.33675567  0.60451134  0.80320764    -0.13500
Br2301     Br  0.30207326  0.63487719  0.83477453    -0.05500
Br2302     Br  0.27510070  0.62282922  0.73872773     0.00100
Br2303     Br  0.31454216  0.53936048  0.82468608     0.00600
Br2304     Br  0.34617911  0.63081553  0.79449289    -0.03900
Br2305     Br  0.27060378  0.66810911  0.81547471     0.00700
Br2306     Br  0.30352222  0.58959191  0.76036201    -0.03200
Br2307     Br  0.28054432  0.57546574  0.81294433    -0.04000
Br2308     Br  0.37976489  0.59520336  0.80719650     0.00000
C2309       C  0.43460972  0.55262619  0.06051628     0.01400
C2310       C  0.45217785  0.54810310  0.04903712     0.04200
C2311       C  0.45146632  0.54865879  0.02772284    -0.11900
C2312       C  0.43365871  0.55520152  0.01784963     0.23500
C2313       C  0.41678950  0.56171767  0.02933989    -0.12400
C2314       C  0.41695308  0.55974977  0.05060850     0.04900
C2315       C  0.43191001  0.55318577  0.99552044     0.27300
C2316       C  0.44112249  0.56748158  0.98247620    -0.13100
C2317       C  0.43997496  0.56485356  0.96129204     0.05400
C2318       C  0.42952974  0.54802449  0.95320369    -0.09100
C2319       C  0.42006466  0.53392199  0.96624228     0.06200
C2320       C  0.42128315  0.53646907  0.98736092    -0.13500
Br2321     Br  0.39310625  0.57236275  0.01570002    -0.05500
Br2322     Br  0.47737884  0.54143707  0.06246469     0.00100
Br2323     Br  0.45309722  0.58394003  0.94332455     0.00600
Br2324     Br  0.40854070  0.51687966  0.00516002    -0.03900
Br2325     Br  0.39222242  0.56477227  0.06561324     0.00700
Br2326     Br  0.47442822  0.53920398  0.01202929    -0.03200
Br2327     Br  0.45529909  0.59054572  0.99370143    -0.04000
Br2328     Br  0.40521383  0.51116132  0.95516806     0.00000
C2329       C  0.72922838  0.19547848  0.21982752     0.01400
C2330       C  0.73000532  0.20289614  0.19939225     0.04200
C2331       C  0.71442247  0.21580940  0.19172717    -0.11900
C2332       C  0.69738897  0.22076917  0.20367686     0.23500
C2333       C  0.69587773  0.21300216  0.22331387    -0.12400
C2334       C  0.71163765  0.20107833  0.23145953     0.04900
C2335       C  0.68077546  0.23423773  0.19598950     0.27300
C2336       C  0.68175268  0.25549097  0.19893570    -0.13100
C2337       C  0.66546353  0.26812911  0.19288951     0.05400
C2338       C  0.64753574  0.25949987  0.18489923    -0.09100
C2339       C  0.64622823  0.23805075  0.18296419     0.06200
C2340       C  0.66288780  0.22556486  0.18812531    -0.13500
Br2341     Br  0.67168491  0.21913805  0.23919614    -0.05500
Br2342     Br  0.75183792  0.19658563  0.18109538     0.00100
Br2343     Br  0.66831067  0.29728190  0.19460713     0.00600
Br2344     Br  0.66099961  0.19634438  0.18534345    -0.03900
Br2345     Br  0.70802913  0.19418168  0.25933034     0.00700
Br2346     Br  0.71614915  0.22715388  0.16472493    -0.03200
Br2347     Br  0.70514837  0.26712236  0.21212192    -0.04000
Br2348     Br  0.62118273  0.22539935  0.17445707     0.00000
C2349       C  0.72806460  0.19497875  0.78799791     0.01400
C2350       C  0.71261039  0.18736422  0.80115809     0.04200
C2351       C  0.69495965  0.19914243  0.80565500    -0.11900
C2352       C  0.69278262  0.21904612  0.79791159     0.23500
C2353       C  0.70911933  0.22733299  0.78705117    -0.12400
C2354       C  0.72749260  0.21646735  0.78536162     0.04900
C2355       C  0.67544639  0.23265042  0.80434098     0.27300
C2356       C  0.65730911  0.23359726  0.79299586    -0.13100
C2357       C  0.64122575  0.24672224  0.79896060     0.05400
C2358       C  0.64331834  0.25964216  0.81602856    -0.09100
C2359       C  0.66182926  0.25913229  0.82697869     0.06200
C2360       C  0.67756247  0.24550979  0.82141251    -0.13500
Br2361     Br  0.70771373  0.25495447  0.77715247    -0.05500
Br2362     Br  0.71851402  0.16553316  0.81946548     0.00100
Br2363     Br  0.61587042  0.24588959  0.78443847     0.00600
Br2364     Br  0.70208806  0.24425482  0.83742103    -0.03900
Br2365     Br  0.74955455  0.23249069  0.79545100     0.00700
Br2366     Br  0.67374802  0.18819801  0.82265864    -0.03200
Br2367     Br  0.65455086  0.21670090  0.76928177    -0.04000
Br2368     Br  0.66612645  0.27769960  0.84932010     0.00000
C2369       C  0.54628544  0.28666836  0.94770756     0.01400
C2370       C  0.54271728  0.30546052  0.95754646     0.04200
C2371       C  0.54180706  0.30630654  0.97886634    -0.11900
C2372       C  0.54497717  0.28851537  0.99039992     0.23500
C2373       C  0.54803493  0.26969302  0.98058668    -0.12400
C2374       C  0.54843039  0.26874182  0.95927310     0.04900
C2375       C  0.54669762  0.28983972  0.01277453     0.27300
C2376       C  0.56452717  0.29784227  0.02144681    -0.13100
C2377       C  0.56630434  0.29929402  0.04262204     0.05400
C2378       C  0.55108065  0.29101746  0.05524929    -0.09100
C2379       C  0.53333233  0.28276692  0.04658433     0.06200
C2380       C  0.53087466  0.28277535  0.02536754    -0.13500
Br2381     Br  0.55262618  0.24535013  0.99638544    -0.05500
Br2382     Br  0.54067232  0.33039462  0.94213463     0.00100
Br2383     Br  0.58899682  0.31387343  0.05412161     0.00600
Br2384     Br  0.50599168  0.27291429  0.01347857    -0.03900
Br2385     Br  0.55172053  0.24279079  0.94591448     0.00700
Br2386     Br  0.53704019  0.33197923  0.99241424    -0.03200
Br2387     Br  0.58687172  0.30617054  0.00430467    -0.04000
Br2388     Br  0.51288216  0.27043959  0.06361780     0.00000
C2389       C  0.33740785  0.12046262  0.62746505     0.01400
C2390       C  0.34351968  0.11334828  0.64674925     0.04200
C2391       C  0.33065656  0.11583098  0.66379230    -0.11900
C2392       C  0.31156682  0.12548215  0.66172549     0.23500
C2393       C  0.30571617  0.13308650  0.64259486    -0.12400
C2394       C  0.31840593  0.13030076  0.62550216     0.04900
C2395       C  0.29838747  0.12911236  0.67995404     0.27300
C2396       C  0.28197582  0.11631654  0.68463044    -0.13100
C2397       C  0.26934706  0.12025715  0.70174926     0.05400
C2398       C  0.27334608  0.13707076  0.71516724    -0.09100
C2399       C  0.29154598  0.14832515  0.71087722     0.06200
C2400       C  0.30281202  0.14529737  0.69288590    -0.13500
Br2401     Br  0.28045779  0.14781466  0.64005856    -0.05500
Br2402     Br  0.36907322  0.09924247  0.64964509     0.00100
Br2403     Br  0.24974852  0.09942868  0.70775232     0.00600
Br2404     Br  0.32419109  0.16406381  0.68503930    -0.03900
Br2405     Br  0.30970606  0.13998008  0.59927542     0.00700
Br2406     Br  0.33913841  0.10603662  0.69008209    -0.03200
Br2407     Br  0.27725680  0.09302018  0.66731625    -0.04000
Br2408     Br  0.30300120  0.16799744  0.72872743     0.00000
C2409       C  0.27218644  0.70123518  0.72684849     0.01400
C2410       C  0.26776155  0.72150982  0.71997860     0.04200
C2411       C  0.28010817  0.73116386  0.70500492    -0.11900
C2412       C  0.29772749  0.72163415  0.69745177     0.23500
C2413       C  0.30317395  0.70256465  0.70511836    -0.12400
C2414       C  0.29038950  0.69224053  0.71891253     0.04900
C2415       C  0.31107811  0.73142989  0.68167731     0.27300
C2416       C  0.30955479  0.72576236  0.66101462    -0.13100
C2417       C  0.32386866  0.73282248  0.64660463     0.05400
C2418       C  0.34032447  0.74509308  0.65275443    -0.09100
C2419       C  0.34161007  0.75108774  0.67336768     0.06200
C2420       C  0.32698353  0.74444964  0.68766572    -0.13500
Br2421     Br  0.32862419  0.69050791  0.69620970    -0.05500
Br2422     Br  0.24546988  0.73734858  0.73024929     0.00100
Br2423     Br  0.32023141  0.72659786  0.61820673     0.00600
Br2424     Br  0.32886646  0.75278158  0.71570676    -0.03900
Br2425     Br  0.29819625  0.66487741  0.72455575     0.00700
Br2426     Br  0.27297403  0.75761154  0.69432349    -0.03200
Br2427     Br  0.28797260  0.70802450  0.65242959    -0.04000
Br2428     Br  0.36390216  0.76782211  0.68231492     0.00000
C2429       C  0.37257308  0.87999791  0.56662031     0.01400
C2430       C  0.38890135  0.89379301  0.56764364     0.04200
C2431       C  0.38522273  0.91482383  0.56625943    -0.11900
C2432       C  0.36533676  0.92209720  0.56303024     0.23500
C2433       C  0.34902691  0.90832422  0.56174532    -0.12400
C2434       C  0.35262586  0.88728180  0.56369961     0.04900
C2435       C  0.36209306  0.94420196  0.55991007     0.27300
C2436       C  0.35950676  0.95721713  0.57672081    -0.13100
C2437       C  0.36030198  0.97846299  0.57405496     0.05400
C2438       C  0.36358643  0.98667694  0.55450184    -0.09100
C2439       C  0.36492721  0.97362575  0.53756317     0.06200
C2440       C  0.36411082  0.95242136  0.54026106    -0.13500
Br2441     Br  0.32188310  0.91836447  0.55717221    -0.05500
Br2442     Br  0.41632086  0.88396807  0.57109725     0.00100
Br2443     Br  0.35872294  0.99607929  0.59747756     0.00600
Br2444     Br  0.36677907  0.93447928  0.51719613    -0.03900
Br2445     Br  0.33038470  0.86833279  0.56148752     0.00700
Br2446     Br  0.40739492  0.93383415  0.56898396    -0.03200
Br2447     Br  0.35608003  0.94578996  0.60349958    -0.04000
Br2448     Br  0.36829858  0.98481121  0.51067069     0.00000
C2449       C  0.18824558  0.25894849  0.64448798     0.01400
C2450       C  0.18674275  0.23780698  0.64074023     0.04200
C2451       C  0.19238835  0.22359321  0.65581981    -0.11900
C2452       C  0.19846479  0.23027507  0.67525891     0.23500
C2453       C  0.19944707  0.25138353  0.67918899    -0.12400
C2454       C  0.19474285  0.26563905  0.66378948     0.04900
C2455       C  0.20636720  0.21518134  0.69044197     0.27300
C2456       C  0.19367947  0.20612444  0.70522315    -0.13100
C2457       C  0.20136337  0.19090766  0.71850898     0.05400
C2458       C  0.22201432  0.18491851  0.71750830    -0.09100
C2459       C  0.23438928  0.19378289  0.70205267     0.06200
C2460       C  0.22670270  0.20893934  0.68902043    -0.13500
Br2461     Br  0.20733058  0.26076013  0.70573067    -0.05500
Br2462     Br  0.17722629  0.22819749  0.61474706     0.00100
Br2463     Br  0.18318476  0.17726326  0.73692622     0.00600
Br2464     Br  0.24407456  0.22121727  0.66864131    -0.03900
Br2465     Br  0.19656388  0.29439107  0.66942414     0.00700
Br2466     Br  0.19263206  0.19486244  0.64963540    -0.03200
Br2467     Br  0.16579606  0.21479967  0.70724633    -0.04000
Br2468     Br  0.26145364  0.18426710  0.69635918     0.00000
C2469       C  0.79594112  0.26045448  0.64298998     0.01400
C2470       C  0.78814439  0.24078660  0.63961668     0.04200
C2471       C  0.78335461  0.22808158  0.65622276    -0.11900
C2472       C  0.78621201  0.23508058  0.67626108     0.23500
C2473       C  0.79322240  0.25509035  0.67959267    -0.12400
C2474       C  0.79811493  0.26769778  0.66302077     0.04900
C2475       C  0.78157455  0.22169061  0.69394870     0.27300
C2476       C  0.76288941  0.22369462  0.70398244    -0.13100
C2477       C  0.75927234  0.21322884  0.72228457     0.05400
C2478       C  0.77347086  0.19863115  0.72980282    -0.09100
C2479       C  0.79273522  0.19761574  0.72006525     0.06200
C2480       C  0.79663091  0.20893191  0.70220527    -0.13500
Br2481     Br  0.79681167  0.26500661  0.70693235    -0.05500
Br2482     Br  0.78470947  0.23111682  0.61220425     0.00100
Br2483     Br  0.73807637  0.22422534  0.73921038     0.00600
Br2484     Br  0.82286290  0.20747767  0.68909179    -0.03900
Br2485     Br  0.80870046  0.29468301  0.66773490     0.00700
Br2486     Br  0.77354252  0.20085945  0.65163058    -0.03200
Br2487     Br  0.74243245  0.24166882  0.69286637    -0.04000
Br2488     Br  0.81533850  0.18449299  0.73295217     0.00000
C2489       C  0.94261147  0.32020018  0.60854273     0.01400
C2490       C  0.95244573  0.33712951  0.61735411     0.04200
C2491       C  0.97374595  0.33837885  0.61709257    -0.11900
C2492       C  0.98529863  0.32245737  0.60861301     0.23500
C2493       C  0.97561643  0.30500930  0.60092480    -0.12400
C2494       C  0.95429616  0.30395170  0.60061320     0.04900
C2495       C  0.00763690  0.32432624  0.60719362     0.27300
C2496       C  0.01664047  0.33078214  0.58887219    -0.13100
C2497       C  0.03788510  0.33221884  0.58732765     0.05400
C2498       C  0.05013414  0.32787465  0.60433748    -0.09100
C2499       C  0.04106071  0.32133312  0.62266319     0.06200
C2500       C  0.01984240  0.31939265  0.62400591    -0.13500
Br2501     Br  0.99173534  0.28281660  0.59032269    -0.05500
Br2502     Br  0.93688458  0.35842451  0.63037258     0.00100
Br2503     Br  0.05016829  0.33848984  0.56143592     0.00600
Br2504     Br  0.00736336  0.30965274  0.64871520    -0.03900
Br2505     Br  0.94146293  0.28086291  0.58784370     0.00700
Br2506     Br  0.98720638  0.36212227  0.62785954    -0.03200
Br2507     Br  0.99976674  0.33736216  0.56582480    -0.04000
Br2508     Br  0.05755926  0.31526269  0.64610328     0.00000
C2509       C  0.73226741  0.14391172  0.27147475     0.01400
C2510       C  0.72520508  0.15470498  0.28905390     0.04200
C2511       C  0.70984628  0.14677046  0.30174890    -0.11900
C2512       C  0.70159957  0.12750533  0.29808126     0.23500
C2513       C  0.70931414  0.11578734  0.28197743    -0.12400
C2514       C  0.72449537  0.12374094  0.26883413     0.04900
C2515       C  0.68576297  0.11940256  0.31228663     0.27300
C2516       C  0.69162792  0.11194185  0.33149376    -0.13100
C2517       C  0.67681659  0.10699175  0.34616682     0.05400
C2518       C  0.65596026  0.10919937  0.34173198    -0.09100
C2519       C  0.65005349  0.11645750  0.32250276     0.06200
C2520       C  0.66486657  0.12128474  0.30774313    -0.13500
Br2521     Br  0.69881066  0.08858281  0.27819232    -0.05500
Br2522     Br  0.73558768  0.18071002  0.29708061     0.00100
Br2523     Br  0.68511517  0.09753568  0.37261681     0.00600
Br2524     Br  0.65635698  0.12976921  0.28114047    -0.03900
Br2525     Br  0.73408807  0.10572901  0.24817967     0.00700
Br2526     Br  0.69964437  0.16241633  0.32462627    -0.03200
Br2527     Br  0.72009607  0.10836551  0.33754579    -0.04000
Br2528     Br  0.62157165  0.11949936  0.31635359     0.00000
C2529       C  0.64602428  0.71523911  0.35603848     0.01400
C2530       C  0.66428409  0.70563493  0.36182891     0.04200
C2531       C  0.67823608  0.69892020  0.34693362    -0.11900
C2532       C  0.67477253  0.70309389  0.32617327     0.23500
C2533       C  0.65617434  0.71213031  0.32037284    -0.12400
C2534       C  0.64174134  0.71783605  0.33522896     0.04900
C2535       C  0.69107989  0.69877810  0.31074792     0.27300
C2536       C  0.70781904  0.71185255  0.30878408    -0.13100
C2537       C  0.72404245  0.70714799  0.29529334     0.05400
C2538       C  0.72253713  0.69064139  0.28104690    -0.09100
C2539       C  0.70673415  0.67639454  0.28546427     0.06200
C2540       C  0.69101087  0.68065860  0.29958856    -0.13500
Br2541     Br  0.65068943  0.71747411  0.29217633    -0.05500
Br2542     Br  0.67101109  0.70337162  0.39023053     0.00100
Br2543     Br  0.74855014  0.72188682  0.30023017     0.00600
Br2544     Br  0.66930290  0.66136975  0.30430719    -0.03900
Br2545     Br  0.61628522  0.72999580  0.32720959     0.00700
Br2546     Br  0.70230278  0.68421779  0.35493644    -0.03200
Br2547     Br  0.70794405  0.73686447  0.32432566    -0.04000
Br2548     Br  0.70842247  0.64893308  0.27697398     0.00000
C2549       C  0.61609509  0.96841867  0.41442365     0.01400
C2550       C  0.62483618  0.96007553  0.43217142     0.04200
C2551       C  0.62603162  0.93887221  0.43455566    -0.11900
C2552       C  0.61952023  0.92597980  0.41882569     0.23500
C2553       C  0.61150166  0.93421778  0.40080779    -0.12400
C2554       C  0.60924908  0.95538647  0.39880874     0.04900
C2555       C  0.61994674  0.90370407  0.42170640     0.27300
C2556       C  0.63807162  0.89272241  0.41866218    -0.13100
C2557       C  0.63840754  0.87158774  0.42190401     0.05400
C2558       C  0.62025800  0.86121893  0.42668120    -0.11500
C2559       C  0.60192239  0.87221958  0.42883960     0.06200
C2560       C  0.60201397  0.89351976  0.42730821    -0.13500
Br2561     Br  0.60316627  0.91632312  0.37910175    -0.05500
Br2562     Br  0.63593515  0.97744233  0.45305271     0.00100
Br2563     Br  0.66390747  0.85707903  0.42058711     0.00600
Br2564     Br  0.57759376  0.90889457  0.43292209    -0.03900
Br2565     Br  0.59513736  0.96612608  0.37544308     0.00700
Br2566     Br  0.63592345  0.92735194  0.45965046    -0.03200
Br2567     Br  0.66225219  0.90664455  0.40965898    -0.04000
Br2568     Br  0.57628502  0.85831572  0.43192162     0.00000
C2569       C  0.22704937  0.64922998  0.27815719     0.01400
C2570       C  0.20702537  0.64107975  0.27528171     0.04200
C2571       C  0.19888966  0.62611602  0.28871977    -0.11900
C2572       C  0.20943366  0.62016431  0.30629097     0.23500
C2573       C  0.22799838  0.62944864  0.31058327    -0.12400
C2574       C  0.23683837  0.64336998  0.29677081     0.04900
C2575       C  0.20103396  0.60460376  0.32086398     0.27300
C2576       C  0.18832657  0.61077707  0.33699971    -0.13100
C2577       C  0.18261867  0.59681374  0.35232340     0.05400
C2578       C  0.18847234  0.57604481  0.35109948    -0.09100
C2579       C  0.20075375  0.56977003  0.33460216     0.06200
C2580       C  0.20750888  0.58408573  0.31998516    -0.13500
Br2581     Br  0.24144572  0.62248796  0.33588618    -0.05500
Br2582     Br  0.18919903  0.64993967  0.25413043     0.00100
Br2583     Br  0.16781474  0.60672870  0.37569464     0.00600
Br2584     Br  0.22604457  0.57570648  0.29888131    -0.03900
Br2585     Br  0.26305575  0.65285074  0.30454253     0.00700
Br2586     Br  0.17327606  0.61299539  0.28300650    -0.03200
Br2587     Br  0.17898859  0.63862833  0.33819116    -0.04000
Br2588     Br  0.20732387  0.54136200  0.33116291     0.00000
C2589       C  0.78651584  0.56656941  0.35019562     0.01400
C2590       C  0.77223622  0.58137263  0.35650699     0.04200
C2591       C  0.76536192  0.59641693  0.34270447    -0.11900
C2592       C  0.77318788  0.59714621  0.32269654     0.23500
C2593       C  0.78666687  0.58171971  0.31620159    -0.12400
C2594       C  0.79268044  0.56616746  0.32964631     0.04900
C2595       C  0.76733562  0.61393251  0.30833730     0.27300
C2596       C  0.75405109  0.61007559  0.29225270    -0.13100
C2597       C  0.75113931  0.62464861  0.27662209     0.05400
C2598       C  0.75980640  0.64486386  0.27787404    -0.09100
C2599       C  0.77023799  0.64921873  0.29660508     0.06200
C2600       C  0.77552043  0.63349249  0.31036832    -0.13500
Br2601     Br  0.79794010  0.58247210  0.28914720    -0.05500
Br2602     Br  0.76287406  0.58176105  0.38425248     0.00100
Br2603     Br  0.73554805  0.61446105  0.25405803     0.00600
Br2604     Br  0.79474404  0.63844428  0.33203231    -0.03900
Br2605     Br  0.80906003  0.54384652  0.31971423     0.00700
Br2606     Br  0.74566561  0.61644508  0.35129001    -0.03200
Br2607     Br  0.74015003  0.58405113  0.29179848    -0.04000
Br2608     Br  0.77666317  0.67622319  0.30597877     0.00000
C2609       C  0.93842358  0.52796934  0.40663152     0.01400
C2610       C  0.94906413  0.54661608  0.40625288     0.04200
C2611       C  0.97047479  0.54670117  0.40636430    -0.11900
C2612       C  0.98130314  0.52824278  0.40788415     0.23500
C2613       C  0.97073557  0.50963289  0.40805214    -0.12400
C2614       C  0.94940855  0.50946107  0.40685131     0.04900
C2615       C  0.00380464  0.52827099  0.40951894     0.27300
C2616       C  0.01583082  0.52488732  0.39212783    -0.13100
C2617       C  0.03710212  0.52379884  0.39381270     0.05400
C2618       C  0.04647807  0.52617647  0.41293739    -0.09100
C2619       C  0.03443368  0.52970697  0.43033678     0.06200
C2620       C  0.01313185  0.53076076  0.42861630    -0.13500
Br2621     Br  0.98558975  0.48436167  0.41035363    -0.05500
Br2622     Br  0.93447613  0.57210351  0.40703272     0.00100
Br2623     Br  0.05321689  0.51791436  0.36997190     0.00600
Br2624     Br  0.99659609  0.53534850  0.45242576    -0.03900
Br2625     Br  0.93543460  0.48374587  0.40456029     0.00700
Br2626     Br  0.98510811  0.57205431  0.40459268    -0.03200
Br2627     Br  0.00301705  0.52137034  0.36603214    -0.04000
Br2628     Br  0.04709628  0.53361401  0.45645547     0.00000
C2629       C  0.71663827  0.64904816  0.22464820     0.01400
C2630       C  0.69539042  0.65032031  0.23030212     0.04200
C2631       C  0.68205833  0.63360043  0.22775810    -0.11900
C2632       C  0.68853992  0.61588934  0.21797256     0.23500
C2633       C  0.70809574  0.61519977  0.20968582    -0.12400
C2634       C  0.72164922  0.63176518  0.21205305     0.04900
C2635       C  0.67375544  0.59921747  0.21359423     0.27300
C2636       C  0.67271309  0.58167460  0.22594517    -0.13100
C2637       C  0.65999378  0.56525032  0.22040854     0.05400
C2638       C  0.64801879  0.56650906  0.20266801    -0.09100
C2639       C  0.64759190  0.58495027  0.19162381     0.06200
C2640       C  0.66078189  0.60096163  0.19669753    -0.13500
Br2641     Br  0.71610634  0.59098039  0.19483731    -0.05500
Br2642     Br  0.68180882  0.67433477  0.24005199     0.00100
Br2643     Br  0.65975890  0.54080921  0.23659133     0.00600
Br2644     Br  0.66171619  0.62507256  0.17993463    -0.03900
Br2645     Br  0.74492799  0.63046132  0.19456642     0.00700
Br2646     Br  0.65418651  0.63456186  0.23750224    -0.03200
Br2647     Br  0.68921330  0.58002186  0.25003936    -0.04000
Br2648     Br  0.62845477  0.58857051  0.16971776     0.00000
C2649       C  0.64593924  0.55518493  0.80518117     0.01400
C2650       C  0.66218676  0.55190931  0.79149044     0.04200
C2651       C  0.67623163  0.56768616  0.78718619    -0.11900
C2652       C  0.67378765  0.58717005  0.79592395     0.23500
C2653       C  0.65687377  0.59076685  0.80871140    -0.12400
C2654       C  0.64336082  0.57478877  0.81366552     0.04900
C2655       C  0.68844752  0.60413728  0.79114821     0.27300
C2656       C  0.70645498  0.60667941  0.80227617    -0.13100
C2657       C  0.71935310  0.62371993  0.79891189     0.05400
C2658       C  0.71497018  0.63857971  0.78349514    -0.09100
C2659       C  0.69553354  0.63626536  0.77366630     0.06200
C2660       C  0.68330741  0.61879219  0.77664692    -0.13500
Br2661     Br  0.65234774  0.61764257  0.81969380    -0.05500
Br2662     Br  0.66550498  0.52558142  0.77906094     0.00100
Br2663     Br  0.73912243  0.62851975  0.81980406     0.00600
Br2664     Br  0.65897817  0.61446033  0.76063625    -0.03900
Br2665     Br  0.62157767  0.57957016  0.83274941     0.00700
Br2666     Br  0.69924461  0.56261044  0.76973280    -0.03200
Br2667     Br  0.71301980  0.58664664  0.82275867    -0.04000
Br2668     Br  0.68243506  0.65711918  0.75817741     0.00000
C2669       C  0.61919458  0.48825727  0.95021719     0.01400
C2670       C  0.62085344  0.50728679  0.96007857     0.04200
C2671       C  0.62294272  0.50817678  0.98136343    -0.11900
C2672       C  0.62277938  0.49013262  0.99294307     0.23500
C2673       C  0.62118590  0.47115591  0.98311721    -0.12400
C2674       C  0.61990609  0.47018979  0.96180030     0.04900
C2675       C  0.62367892  0.49102001  0.01550138     0.27300
C2676       C  0.64254824  0.49061125  0.02556495    -0.13100
C2677       C  0.64329248  0.49032287  0.04697724     0.05400
C2678       C  0.62511991  0.49045090  0.05841870    -0.09100
C2679       C  0.60625180  0.49151802  0.04825310     0.06200
C2680       C  0.60555875  0.49156269  0.02689150    -0.13500
Br2681     Br  0.62001921  0.44652227  0.99904522    -0.05500
Br2682     Br  0.61886403  0.53226197  0.94474614     0.00100
Br2683     Br  0.66920356  0.48884500  0.06051754     0.00600
Br2684     Br  0.57971835  0.49191070  0.01309554    -0.03900
Br2685     Br  0.61992599  0.44403067  0.94845942     0.00700
Br2686     Br  0.62538075  0.53413347  0.99482951    -0.03200
Br2687     Br  0.66729998  0.48986111  0.00983991    -0.04000
Br2688     Br  0.58121750  0.49388989  0.06343899     0.00000
C2689       C  0.18236586  0.58009434  0.64846217     0.01400
C2690       C  0.18062680  0.60146590  0.64639372     0.04200
C2691       C  0.18516234  0.61442424  0.66283591    -0.11900
C2692       C  0.19233998  0.60630061  0.68130036     0.23500
C2693       C  0.19385761  0.58497033  0.68351917    -0.12400
C2694       C  0.18889494  0.57191406  0.66718656     0.04900
C2695       C  0.20155811  0.62025559  0.69672104     0.27300
C2696       C  0.22133887  0.62726802  0.69344760    -0.13100
C2697       C  0.23054340  0.64071026  0.70730565     0.05400
C2698       C  0.22019219  0.64786065  0.72503461    -0.09100
C2699       C  0.19968553  0.64121901  0.72760261     0.06200
C2700       C  0.19072674  0.62720961  0.71380454    -0.13500
Br2701     Br  0.20252458  0.57369039  0.70909094    -0.05500
Br2702     Br  0.17321398  0.61323354  0.62056037     0.00100
Br2703     Br  0.25772811  0.64834492  0.70084048     0.00600
Br2704     Br  0.16347318  0.61724765  0.71808499    -0.03900
Br2705     Br  0.19052645  0.54281934  0.67071840     0.00700
Br2706     Br  0.18180482  0.64350778  0.66012001    -0.03200
Br2707     Br  0.23597137  0.61802137  0.66950545    -0.04000
Br2708     Br  0.18265565  0.65139228  0.74884909     0.00000
C2709       C  0.79826636  0.56626335  0.66078768     0.01400
C2710       C  0.80371894  0.56431585  0.68151684     0.04200
C2711       C  0.79837084  0.57951360  0.69579170    -0.11900
C2712       C  0.78800142  0.59726269  0.68958924     0.23500
C2713       C  0.78231172  0.59918471  0.66896821    -0.12400
C2714       C  0.78724768  0.58373411  0.65470355     0.04900
C2715       C  0.78072679  0.61232722  0.70528317     0.27300
C2716       C  0.76096623  0.61033794  0.71310466    -0.13100
C2717       C  0.75416138  0.62286310  0.72915002     0.05400
C2718       C  0.76660882  0.63884783  0.73692693    -0.09100
C2719       C  0.78691983  0.63993066  0.72987517     0.06200
C2720       C  0.79382174  0.62697945  0.71398592    -0.13500
Br2721     Br  0.76735514  0.62294036  0.66041083    -0.05500
Br2722     Br  0.81786025  0.54028192  0.69077178     0.00100
Br2723     Br  0.72905864  0.61486613  0.74207273     0.00600
Br2724     Br  0.82128298  0.62922017  0.70409018    -0.03900
Br2725     Br  0.77932968  0.58687222  0.62671556     0.00700
Br2726     Br  0.80435607  0.57559238  0.72423331    -0.03200
Br2727     Br  0.74326739  0.58960875  0.70206159    -0.04000
Br2728     Br  0.80605445  0.65717497  0.74372228     0.00000
C2729       C  0.04382627  0.53441774  0.57653723     0.01400
C2730       C  0.03187179  0.53573413  0.55881652     0.04200
C2731       C  0.01063192  0.53357115  0.56008631    -0.11900
C2732       C  0.00130288  0.53041821  0.57910841     0.23500
C2733       C  0.01319445  0.52950473  0.59683246    -0.12400
C2734       C  0.03441573  0.53125807  0.59556108     0.04900
C2735       C  0.97899133  0.52789210  0.58072447     0.27300
C2736       C  0.96676429  0.54455397  0.58642988    -0.13100
C2737       C  0.94583508  0.54184545  0.58977405     0.05400
C2738       C  0.93697373  0.52249057  0.58700499    -0.09100
C2739       C  0.94927532  0.50579098  0.58134943     0.06200
C2740       C  0.97024768  0.50850234  0.57821490    -0.13500
Br2741     Br  0.00028509  0.52548620  0.62288984    -0.05500
Br2742     Br  0.04453395  0.54105442  0.53288066     0.00100
Br2743     Br  0.92941202  0.56483133  0.59787868     0.00600
Br2744     Br  0.98720455  0.48559914  0.57099336    -0.03900
Br2745     Br  0.05047669  0.52788527  0.61984832     0.00700
Br2746     Br  0.99426970  0.53477739  0.53584227    -0.03200
Br2747     Br  0.97889128  0.57106732  0.58980542    -0.04000
Br2748     Br  0.93770741  0.47889191  0.57926057     0.00000
C2749       C  0.72739452  0.14659043  0.72870189     0.01400
C2750       C  0.72802014  0.12555756  0.72336488     0.04200
C2751       C  0.71463585  0.11749490  0.70842394    -0.11900
C2752       C  0.70159686  0.13038435  0.69730945     0.23500
C2753       C  0.70147957  0.15122402  0.70176674    -0.12400
C2754       C  0.71372093  0.15906607  0.71747174     0.04900
C2755       C  0.68860046  0.12268767  0.68017139     0.27300
C2756       C  0.69698441  0.12014346  0.66058007    -0.13100
C2757       C  0.68433206  0.11584567  0.64378819     0.05400
C2758       C  0.66306984  0.11393998  0.64630398    -0.09100
C2759       C  0.65471200  0.11617572  0.66597817     0.06200
C2760       C  0.66740352  0.12047183  0.68278534    -0.13500
Br2761     Br  0.68492865  0.16930990  0.68538137    -0.05500
Br2762     Br  0.74791473  0.10748432  0.73456095     0.00100
Br2763     Br  0.69616645  0.11337873  0.61705264     0.00600
Br2764     Br  0.65585735  0.12329225  0.70959665    -0.03900
Br2765     Br  0.71213931  0.18758929  0.72186868     0.00700
Br2766     Br  0.71404767  0.08866544  0.70287511    -0.03200
Br2767     Br  0.72591091  0.12285675  0.65671035    -0.04000
Br2768     Br  0.62594585  0.11258670  0.67014327     0.00000
C2769       C  0.65433027  0.72936717  0.65458132     0.01400
C2770       C  0.67276826  0.71942090  0.64996047     0.04200
C2771       C  0.68727284  0.71557796  0.66534319    -0.11900
C2772       C  0.68316069  0.72078215  0.68583262     0.23500
C2773       C  0.66480259  0.73105859  0.69035648    -0.12400
C2774       C  0.65068802  0.73562360  0.67478977     0.04900
C2775       C  0.69614095  0.71199721  0.70257632     0.27300
C2776       C  0.69504320  0.69100311  0.70622806    -0.13100
C2777       C  0.70824605  0.68164596  0.72016999     0.05400
C2778       C  0.72039107  0.69321079  0.73380001    -0.09100
C2779       C  0.72152658  0.71453559  0.73010846     0.06200
C2780       C  0.70989364  0.72371387  0.71424960    -0.13500
Br2781     Br  0.65860468  0.73849295  0.71796447    -0.05500
Br2782     Br  0.67789130  0.71067992  0.62246260     0.00100
Br2783     Br  0.71121236  0.65291201  0.71737342     0.00600
Br2784     Br  0.71262769  0.75233230  0.70856015    -0.03900
Br2785     Br  0.62617164  0.75045086  0.68114668     0.00700
Br2786     Br  0.71277232  0.70275353  0.65842877    -0.03200
Br2787     Br  0.67491555  0.67480427  0.69211148    -0.04000
Br2788     Br  0.73825433  0.73151661  0.74691618     0.00000
C2789       C  0.60647609  0.97639991  0.59263730     0.01400
C2790       C  0.61528462  0.96661839  0.60959066     0.04200
C2791       C  0.61551119  0.94523978  0.61073534    -0.11900
C2792       C  0.60721436  0.93359945  0.59486515     0.23500
C2793       C  0.59886827  0.94328061  0.57772448    -0.12400
C2794       C  0.59805662  0.96463530  0.57679333     0.04900
C2795       C  0.60660674  0.91113924  0.59638596     0.27300
C2796       C  0.62182269  0.89933351  0.58707745    -0.13100
C2797       C  0.62016662  0.87799832  0.58672385     0.05400
C2798       C  0.60361787  0.86832295  0.59651516    -0.09100
C2799       C  0.58897139  0.88029651  0.60686077     0.06200
C2800       C  0.59034847  0.90164753  0.60650317    -0.13500
Br2801     Br  0.58888479  0.92714978  0.55535134    -0.05500
Br2802     Br  0.62593028  0.98233155  0.63192317     0.00100
Br2803     Br  0.63996556  0.86254530  0.57144355     0.00600
Br2804     Br  0.57000507  0.91809338  0.61994708    -0.03900
Br2805     Br  0.58562516  0.97753006  0.55354812     0.00700
Br2806     Br  0.62706599  0.93171923  0.63404447    -0.03200
Br2807     Br  0.64489160  0.91262857  0.57475149    -0.04000
Br2808     Br  0.56747419  0.86783101  0.62252461     0.00000
loop_ 
_geom_bond_atom_site_label_1 
_geom_bond_atom_site_label_2 
_geom_bond_distance 
_geom_bond_site_symmetry_2 
_ccdc_geom_bond_type 
O1           Cu9   2.059       .  S
O1           C11   1.282       .  A
O2           Cu9   2.079       .  S
O2           C12   1.284       .  A
O3           Cu9   2.077       .  S
O3           C13   1.284       .  A
O4           Cu9   2.083       .  S
O4           C14   1.285       .  A
O5          Cu10   1.981       .  S
O5           C14   1.275       .  A
O6          Cu10   1.981       .  S
O6           C13   1.275       .  A
O7          Cu10   1.987       .  S
O7           C12   1.276       .  A
O8          Cu10   1.984       .  S
O8           C11   1.275       .  A
Cu9         Cu10   2.364       .  S
C11         C638   1.478       .  S
C12         C206   1.492       .  S
C13         C398   1.487       .  S
C14         C494   1.491       .  S
O15         Cu23   2.067       .  S
O15          C25   1.282       .  A
O16         Cu23   2.068       .  S
O16          C26   1.282       .  A
O17         Cu23   2.098       .  S
O17          C27   1.288       .  A
O18         Cu23   2.096       .  S
O18          C28   1.287       .  A
O19         Cu24   1.975       .  S
O19          C28   1.274       .  A
O20         Cu24   1.973       .  S
O20          C27   1.272       .  A
O21         Cu24   1.987       .  S
O21          C26   1.277       .  A
O22         Cu24   1.991       .  S
O22          C25   1.276       .  A
Cu23        Cu24   2.362       .  S
C25         C686   1.486       .  S
C26         C254   1.487       .  S
C27         C446   1.492       .  S
C28         C350   1.496       .  S
O29         Cu37   2.088       .  S
O29          C39   1.285       .  A
O30         Cu37   2.082       .  S
O30          C40   1.285       .  A
O31         Cu37   2.060       .  S
O31          C41   1.282       .  A
O32         Cu37   2.070       .  S
O32          C42   1.283       .  A
O33         Cu38   1.995       .  S
O33          C42   1.276       .  A
O34         Cu38   1.991       .  S
O34          C41   1.276       .  A
O35         Cu38   1.990       .  S
O35          C40   1.275       .  A
O36         Cu38   1.988       .  S
O36          C39   1.276       .  A
Cu37        Cu38   2.362       .  S
C39         C182   1.497       .  S
C40         C614   1.491       .  S
C41         C374   1.482       .  S
C42         C470   1.487       .  S
O43         Cu51   2.099       .  S
O43          C53   1.287       .  A
O44         Cu51   2.096       .  S
O44          C54   1.287       .  A
O45         Cu51   2.060       .  S
O45          C55   1.282       .  A
O46         Cu51   2.069       .  S
O46          C56   1.283       .  A
O47         Cu52   1.976       .  S
O47          C56   1.275       .  A
O48         Cu52   1.972       .  S
O48          C55   1.274       .  A
O49         Cu52   1.988       .  S
O49          C54   1.275       .  A
O50         Cu52   1.982       .  S
O50          C53   1.275       .  A
Cu51        Cu52   2.364       .  S
C53         C230   1.498       .  S
C54         C662   1.498       .  S
C55         C422   1.478       .  S
C56         C326   1.483       .  S
O57         Cu65   1.988       .  S
O57          C67   1.275       .  A
O58         Cu65   1.987       .  S
O58          C68   1.275       .  A
O59         Cu65   1.982       .  S
O59          C69   1.275       .  A
O60         Cu65   1.982       .  S
O60          C70   1.275       .  A
O61         Cu66   2.069       .  S
O61          C70   1.283       .  A
O62         Cu66   2.058       .  S
O62          C69   1.282       .  A
O63         Cu66   2.060       .  S
O63          C68   1.283       .  A
O64         Cu66   2.061       .  S
O64          C67   1.283       .  A
Cu65        Cu66   2.368       .  S
C67         C302   1.482       .  S
C68         C734   1.482       .  S
C69         C590   1.480       .  S
C70         C542   1.482       .  S
O71         Cu79   1.997       .  S
O71          C81   1.277       .  A
O72         Cu79   1.994       .  S
O72          C82   1.276       .  A
O73         Cu79   2.006       .  S
O73          C83   1.278       .  A
O74         Cu79   2.001       .  S
O74          C84   1.278       .  A
O75         Cu80   2.067       .  S
O75          C84   1.283       .  A
O76         Cu80   2.070       .  S
O76          C83   1.283       .  A
O77         Cu80   2.093       .  S
O77          C82   1.286       .  A
O78         Cu80   2.088       .  S
O78          C81   1.286       .  A
Cu79        Cu80   2.362       .  S
C81         C278   1.499       .  S
C82         C710   1.498       .  S
C83         C518   1.489       .  S
C84         C566   1.489       .  S
O85         Cu93   2.074   1_556  S
O85          C95   1.283       .  A
O86         Cu93   2.074   1_655  S
O86          C96   1.283       .  A
O87         Cu93   2.089       .  S
O87          C97   1.286       .  A
O88         Cu93   2.083   1_656  S
O88          C98   1.285       .  A
O89         Cu94   1.985   1_656  S
O89          C98   1.275       .  A
O90         Cu94   1.983       .  S
O90          C97   1.275       .  A
O91         Cu94   2.000   1_655  S
O91          C96   1.277       .  A
O92         Cu94   2.000   1_556  S
O92          C95   1.278       .  A
Cu93        Cu94   2.363       .  S
C95        C1286   1.493       .  S
C96         C974   1.491       .  S
C97         C782   1.493       .  S
C98        C1118   1.493       .  S
O99        Cu107   2.074       .  S
O99         C109   1.284       .  A
O100       Cu107   2.075   1_556  S
O100        C110   1.283       .  A
O101       Cu107   2.072       .  S
O101        C111   1.284       .  A
O102       Cu107   2.076   1_556  S
O102        C112   1.284       .  A
O103       Cu108   1.978   1_556  S
O103        C112   1.274       .  A
O104       Cu108   1.975       .  S
O104        C111   1.274       .  A
O105       Cu108   1.987   1_556  S
O105        C110   1.276       .  A
O106       Cu108   1.987       .  S
O106        C109   1.275       .  A
Cu107      Cu108   2.365       .  S
C109        C926   1.485       .  S
C110        C878   1.490       .  S
C111        C830   1.484       .  S
C112       C1214   1.487       .  S
O113       Cu121   2.079       .  S
O113        C123   1.284       .  A
O114       Cu121   2.083   1_654  S
O114        C124   1.285       .  A
O115       Cu121   2.066   1_655  S
O115        C125   1.283       .  A
O116       Cu121   2.066   1_554  S
O116        C126   1.283       .  A
O117       Cu122   1.973   1_554  S
O117        C126   1.274       .  A
O118       Cu122   1.969   1_655  S
O118        C125   1.274       .  A
O119       Cu122   1.986   1_654  S
O119        C124   1.276       .  A
O120       Cu122   1.984       .  S
O120        C123   1.275       .  A
Cu121      Cu122   2.365       .  S
C123       C1262   1.487       .  S
C124        C950   1.492       .  S
C125       C1094   1.479       .  S
C126        C758   1.481       .  S
O127       Cu135   2.075       .  S
O127        C137   1.284       .  A
O128       Cu135   2.076   1_554  S
O128        C138   1.284       .  A
O129       Cu135   2.078   1_554  S
O129        C139   1.285       .  A
O130       Cu135   2.086       .  S
O130        C140   1.285       .  A
O131       Cu136   1.981       .  S
O131        C140   1.275       .  A
O132       Cu136   1.982   1_554  S
O132        C139   1.274       .  A
O133       Cu136   1.981   1_554  S
O133        C138   1.276       .  A
O134       Cu136   1.982       .  S
O134        C137   1.275       .  A
Cu135      Cu136   2.363       .  S
C137        C854   1.487       .  S
C138        C902   1.488       .  S
C139        C806   1.485       .  S
C140       C1190   1.492       .  S
O141       Cu149   1.996       .  S
O141        C151   1.278       .  A
O142       Cu149   1.992   1_455  S
O142        C152   1.277       .  A
O143       Cu149   1.992       .  S
O143        C153   1.275       .  A
O144       Cu149   1.988   1_455  S
O144        C154   1.275       .  A
O145       Cu150   2.096   1_455  S
O145        C154   1.287       .  A
O146       Cu150   2.105       .  S
O146        C153   1.288       .  A
O147       Cu150   2.081   1_455  S
O147        C152   1.284       .  A
O148       Cu150   2.090       .  S
O148        C151   1.285       .  A
Cu149      Cu150   2.360       .  S
C151       C1022   1.500       .  S
C152       C1070   1.494       .  S
C153       C1166   1.504       .  S
C154       C1352   1.499       .  S
O155       Cu163   2.062   1_655  S
O155        C165   1.282       .  A
O156       Cu163   2.066       .  S
O156        C166   1.282       .  A
O157       Cu163   2.080       .  S
O157        C167   1.286       .  A
O158       Cu163   2.076   1_655  S
O158        C168   1.285       .  A
O159       Cu164   1.964   1_655  S
O159        C168   1.272       .  A
O160       Cu164   1.966       .  S
O160        C167   1.272       .  A
O161       Cu164   1.981       .  S
O161        C166   1.276       .  A
O162       Cu164   1.978   1_655  S
O162        C165   1.275       .  A
Cu163      Cu164   2.366       .  S
C165       C1142   1.480       .  S
C166       C1328   1.485       .  S
C167       C1046   1.481       .  S
C168        C998   1.482       .  S
N169        N170   1.315       .  A
N169        C173   1.343       .  A
N169       Cu177   2.052       .  S
N170        C171   1.342       .  A
N170       Cu176   2.054       .  S
C171        C172   1.386       .  A
C171        H174   1.081       .  S
C172       C2798   1.483       .  S
C172        C173   1.386       .  A
C173        H175   1.082       .  S
Cu176       N179   2.049       .  S
Cu177       N187   2.051       .  S
Cu178       N180   2.162       .  S
Cu178       N186   2.165       .  S
N179        N180   1.323       .  A
N179        C183   1.334       .  A
N180        C181   1.368       .  A
C181        C182   1.408       .  A
C181        H184   1.083       .  S
C182        C183   1.376       .  A
C183        H185   1.078       .  S
N186        N187   1.326       .  A
N186        C190   1.361       .  A
N187        C188   1.341       .  A
C188        C189   1.372       .  A
C188        H191   1.078       .  S
C189       C2769   1.495       .  S
C189        C190   1.402       .  A
C190        H192   1.083       .  S
N193        N194   1.318       .  A
N193        C197   1.345       .  A
N193       Cu201   2.064       .  S
N194        C195   1.342       .  A
N194       Cu200   2.055       .  S
C195        C196   1.382   1_545  A
C195        H198   1.082       .  S
C196       C2789   1.477       .  S
C196        C197   1.386   1_565  A
C197        H199   1.081       .  S
Cu200       N203   2.054       .  S
Cu201       N211   2.065       .  S
Cu202       N204   2.145       .  S
Cu202       N210   2.149       .  S
N203        N204   1.321       .  A
N203        C207   1.337       .  A
N204        C205   1.365       .  A
C205        C206   1.403       .  A
C205        H208   1.081       .  S
C206        C207   1.378       .  A
C207        H209   1.079       .  S
N210        N211   1.326       .  A
N210        C214   1.359       .  A
N211        C212   1.343       .  A
C212        C213   1.377       .  A
C212        H215   1.081       .  S
C213       C2758   1.499       .  S
C213        C214   1.400       .  A
C214        H216   1.080       .  S
N217        N218   1.316       .  A
N217        C221   1.345       .  A
N217       Cu225   2.062       .  S
N218        C219   1.343       .  A
N218       Cu224   2.054       .  S
C219        C220   1.383       .  A
C219        H222   1.081       .  S
C220       C2738   1.478       .  S
C220        C221   1.386       .  A
C221        H223   1.082       .  S
Cu224       N227   2.050       .  S
Cu225       N235   2.064       .  S
Cu226       N228   2.166       .  S
Cu226       N234   2.169       .  S
N227        N228   1.322       .  A
N227        C231   1.333       .  A
N228        C229   1.371       .  A
C229        C230   1.409       .  A
C229        H232   1.082       .  S
C230        C231   1.375       .  A
C231        H233   1.075       .  S
N234        N235   1.327       .  A
N234        C238   1.363       .  A
N235        C236   1.342       .  A
C236        C237   1.376       .  A
C236        H239   1.081       .  S
C237       C2709   1.505       .  S
C237        C238   1.404       .  A
C238        H240   1.078       .  S
N241        N242   1.315       .  A
N241        C245   1.344       .  A
N241       Cu249   2.057       .  S
N242        C243   1.342       .  A
N242       Cu248   2.049       .  S
C243        C244   1.383       .  A
C243        H246   1.082       .  S
C244       C2729   1.476       .  S
C244        C245   1.386       .  A
C245        H247   1.082       .  S
Cu248       N251   2.048       .  S
Cu249       N259   2.058       .  S
Cu250       N252   2.140       .  S
Cu250       N258   2.143       .  S
N251        N252   1.323       .  A
N251        C255   1.334       .  A
N252        C253   1.364       .  A
C253        C254   1.402       .  A
C253        H256   1.082       .  S
C254        C255   1.374       .  A
C255        H257   1.081       .  S
N258        N259   1.327       .  A
N258        C262   1.358       .  A
N259        C260   1.339       .  A
C260        C261   1.374       .  A
C260        H263   1.078       .  S
C261       C2689   1.491       .  S
C261        C262   1.397       .  A
C262        H264   1.084       .  S
N265        N266   1.317       .  A
N265        C269   1.347       .  A
N265       Cu273   2.066       .  S
N266        C267   1.344       .  A
N266       Cu272   2.062       .  S
C267        C268   1.385       .  A
C267        H270   1.082       .  S
C268       C2669   1.483       .  S
C268        C269   1.387       .  A
C269        H271   1.081       .  S
Cu272       N275   2.063       .  S
Cu273       N283   2.066       .  S
Cu274       N276   2.164       .  S
Cu274       N282   2.166       .  S
N275        N276   1.325       .  A
N275        C279   1.338       .  A
N276        C277   1.367       .  A
C277        C278   1.405       .  A
C277        H280   1.083       .  S
C278        C279   1.379       .  A
C279        H281   1.080       .  S
N282        N283   1.327       .  A
N282        C286   1.363       .  A
N283        C284   1.342       .  A
C284        C285   1.374       .  A
C284        H287   1.079       .  S
C285       C2649   1.499       .  S
C285        C286   1.402       .  A
C286        H288   1.083       .  S
N289        N290   1.317       .  A
N289        C293   1.348       .  A
N289       Cu297   2.070       .  S
N290        C291   1.343       .  A
N290       Cu296   2.065       .  S
C291        C292   1.386       .  A
C291        H294   1.081       .  S
C292       C2678   1.485       .  S
C292        C293   1.388       .  A
C293        H295   1.081       .  S
Cu296       N299   2.066       .  S
Cu297       N307   2.071       .  S
Cu298       N300   2.122       .  S
Cu298       N306   2.123       .  S
N299        N300   1.324       .  A
N299        C303   1.338       .  A
N300        C301   1.359       .  A
C301        C302   1.395       .  A
C301        H304   1.082       .  S
C302        C303   1.378       .  A
C303        H305   1.078       .  S
N306        N307   1.326       .  A
N306        C310   1.357       .  A
N307        C308   1.339       .  A
C308        C309   1.377       .  A
C308        H311   1.082       .  S
C309       C2638   1.490       .  S
C309        C310   1.394       .  A
C310        H312   1.080       .  S
N313        N314   1.317       .  A
N313        C317   1.349       .  A
N313       Cu321   2.075       .  S
N314        C315   1.342       .  A
N314       Cu320   2.053       .  S
C315        C316   1.383       .  A
C315        H318   1.082       .  S
C316       C2609   1.483       .  S
C316        C317   1.390       .  A
C317        H319   1.080       .  S
Cu320       N323   2.053       .  S
Cu321       N331   2.078       .  S
Cu322       N324   2.128       .  S
Cu322       N330   2.131       .  S
N323        N324   1.323       .  A
N323        C327   1.335       .  A
N324        C325   1.362       .  A
C325        C326   1.398       .  A
C325        H328   1.082       .  S
C326        C327   1.376       .  A
C327        H329   1.079       .  S
N330        N331   1.327       .  A
N330        C334   1.358       .  A
N331        C332   1.341       .  A
C332        C333   1.378       .  A
C332        H335   1.082       .  S
C333       C2589   1.493       .  S
C333        C334   1.395       .  A
C334        H336   1.080       .  S
N337        N338   1.316       .  A
N337        C341   1.343       .  A
N337       Cu345   2.053       .  S
N338        C339   1.347       .  A
N338       Cu344   2.067       .  S
C339        C340   1.387       .  A
C339        H342   1.080       .  S
C340       C2618   1.479       .  S
C340        C341   1.384       .  A
C341        H343   1.081       .  S
Cu344       N347   2.066       .  S
Cu345       N355   2.054       .  S
Cu346       N348   2.156       .  S
Cu346       N354   2.158       .  S
N347        N348   1.325       .  A
N347        C351   1.334       .  A
N348        C349   1.368       .  A
C349        C350   1.405       .  A
C349        H352   1.082       .  S
C350        C351   1.378       .  A
C351        H353   1.082       .  S
N354        N355   1.325       .  A
N354        C358   1.360       .  A
N355        C356   1.340       .  A
C356        C357   1.376       .  A
C356        H359   1.078       .  S
C357       C2578   1.502       .  S
C357        C358   1.403       .  A
C358        H360   1.084       .  S
N361        N362   1.317       .  A
N361        C365   1.341       .  A
N361       Cu369   2.048       .  S
N362        C363   1.343       .  A
N362       Cu368   2.057       .  S
C363        C364   1.385       .  A
C363        H366   1.082       .  S
C364       C2558   1.474       .  S
C364        C365   1.381       .  A
C365        H367   1.082       .  S
Cu368       N371   2.058       .  S
Cu369       N379   2.050       .  S
Cu370       N372   2.133       .  S
Cu370       N378   2.134       .  S
N371        N372   1.324       .  A
N371        C375   1.338       .  A
N372        C373   1.360       .  A
C373        C374   1.397       .  A
C373        H376   1.081       .  S
C374        C375   1.376       .  A
C375        H377   1.078       .  S
N378        N379   1.325       .  A
N378        C382   1.357       .  A
N379        C380   1.340       .  A
C380        C381   1.373       .  A
C380        H383   1.082       .  S
C381       C2529   1.485       .  S
C381        C382   1.396       .  A
C382        H384   1.080       .  S
N385        N386   1.316       .  A
N385        C389   1.343       .  A
N385       Cu393   2.051       .  S
N386        C387   1.340       .  A
N386       Cu392   2.049       .  S
C387        C388   1.383   1_545  A
C387        H390   1.082   1_545  S
C388       C2549   1.475       .  S
C388        C389   1.385   1_565  A
C389        H391   1.082   1_545  S
Cu392       N395   2.049       .  S
Cu393       N403   2.052       .  S
Cu394       N396   2.139       .  S
Cu394       N402   2.141       .  S
N395        N396   1.322       .  A
N395        C399   1.335       .  A
N396        C397   1.363       .  A
C397        C398   1.401       .  A
C397        H400   1.082       .  S
C398        C399   1.377       .  A
C399        H401   1.081       .  S
N402        N403   1.327       .  A
N402        C406   1.357       .  A
N403        C404   1.339       .  A
C404        C405   1.372       .  A
C404        H407   1.079       .  S
C405       C2518   1.484       .  S
C405        C406   1.395       .  A
C406        H408   1.085       .  S
N409        N410   1.316       .  A
N409        C413   1.345       .  A
N409       Cu417   2.059       .  S
N410        C411   1.341       .  A
N410       Cu416   2.048       .  S
C411        C412   1.383       .  A
C411        H414   1.082       .  S
C412       C2489   1.478       .  S
C412        C413   1.387       .  A
C413        H415   1.082       .  S
Cu416       N419   2.048       .  S
Cu417       N427   2.059       .  S
Cu418       N420   2.115       .  S
Cu418       N426   2.118       .  S
N419        N420   1.322       .  A
N419        C423   1.333       .  A
N420        C421   1.359       .  A
C421        C422   1.396       .  A
C421        H424   1.082       .  S
C422        C423   1.376       .  A
C423        H425   1.080       .  S
N426        N427   1.326       .  A
N426        C430   1.354       .  A
N427        C428   1.339       .  A
C428        C429   1.374       .  A
C428        H431   1.082       .  S
C429       C2469   1.478       .  S
C429        C430   1.391       .  A
C430        H432   1.082       .  S
N433        N434   1.318       .  A
N433        C437   1.340       .  A
N433       Cu441   2.044       .  S
N434        C435   1.348       .  A
N434       Cu440   2.078       .  S
C435        C436   1.388       .  A
C435        H438   1.082       .  S
C436       C2498   1.475       .  S
C436        C437   1.378       .  A
C437        H439   1.082       .  S
Cu440       N443   2.079       .  S
Cu441       N451   2.045       .  S
Cu442       N444   2.141       .  S
Cu442       N450   2.141       .  S
N443        N444   1.325       .  A
N443        C447   1.338       .  A
N444        C445   1.364       .  A
C445        C446   1.400       .  A
C445        H448   1.082       .  S
C446        C447   1.381       .  A
C447        H449   1.078       .  S
N450        N451   1.323       .  A
N450        C454   1.357       .  A
N451        C452   1.341       .  A
C452        C453   1.375       .  A
C452        H455   1.080       .  S
C453       C2449   1.493       .  S
C453        C454   1.399       .  A
C454        H456   1.083       .  S
N457        N458   1.318       .  A
N457        C461   1.343       .  A
N457       Cu465   2.060       .  S
N458        C459   1.346       .  A
N458       Cu464   2.061       .  S
C459        C460   1.384       .  A
C459        H462   1.082       .  S
C460       C2429   1.474       .  S
C460        C461   1.382       .  A
C461        H463   1.082       .  S
Cu464       N467   2.062       .  S
Cu465       N475   2.060       .  S
Cu466       N468   2.147       .  S
Cu466       N474   2.147       .  S
N467        N468   1.325       .  A
N467        C471   1.338       .  A
N468        C469   1.363       .  A
C469        C470   1.400       .  A
C469        H472   1.082       .  S
C470        C471   1.376       .  A
C471        H473   1.077       .  S
N474        N475   1.325       .  A
N474        C478   1.358       .  A
N475        C476   1.343       .  A
C476        C477   1.376       .  A
C476        H479   1.082       .  S
C477       C2418   1.497       .  S
C477        C478   1.400       .  A
C478        H480   1.081       .  S
N481        N482   1.317       .  A
N481        C485   1.346       .  A
N481       Cu489   2.059       .  S
N482        C483   1.342       .  A
N482       Cu488   2.057       .  S
C483        C484   1.383       .  A
C483        H486   1.082       .  S
C484       C2438   1.476   1_545  S
C484        C485   1.385       .  A
C485        H487   1.083       .  S
Cu488       N491   2.056       .  S
Cu489       N499   2.059       .  S
Cu490       N492   2.142       .  S
Cu490       N498   2.145       .  S
N491        N492   1.323       .  A
N491        C495   1.335       .  A
N492        C493   1.365       .  A
C493        C494   1.403       .  A
C493        H496   1.082       .  S
C494        C495   1.377       .  A
C495        H497   1.081       .  S
N498        N499   1.327       .  A
N498        C502   1.358       .  A
N499        C500   1.341       .  A
C500        C501   1.374       .  A
C500        H503   1.082       .  S
C501       C2389   1.490       .  S
C501        C502   1.397       .  A
C502        H504   1.081       .  S
N505        N506   1.317       .  A
N505        C509   1.344       .  A
N505       Cu513   2.063       .  S
N506        C507   1.343       .  A
N506       Cu512   2.052       .  S
C507        C508   1.383       .  A
C507        H510   1.082       .  S
C508       C2369   1.476       .  S
C508        C509   1.385       .  A
C509        H511   1.082       .  S
Cu512       N515   2.052       .  S
Cu513       N523   2.065       .  S
Cu514       N516   2.157       .  S
Cu514       N522   2.158       .  S
N515        N516   1.324       .  A
N515        C519   1.339       .  A
N516        C517   1.364       .  A
C517        C518   1.403       .  A
C517        H520   1.082       .  S
C518        C519   1.375       .  A
C519        H521   1.078       .  S
N522        N523   1.326       .  A
N522        C526   1.361       .  A
N523        C524   1.342       .  A
C524        C525   1.378       .  A
C524        H527   1.081       .  S
C525       C2358   1.505       .  S
C525        C526   1.403       .  A
C526        H528   1.083       .  S
N529        N530   1.316       .  A
N529        C533   1.342       .  A
N529       Cu537   2.056       .  S
N530        C531   1.343       .  A
N530       Cu536   2.049       .  S
C531        C532   1.382       .  A
C531        H534   1.080       .  S
C532       C2378   1.474       .  S
C532        C533   1.384       .  A
C533        H535   1.081       .  S
Cu536       N539   2.049       .  S
Cu537       N547   2.058       .  S
Cu538       N540   2.136       .  S
Cu538       N546   2.138       .  S
N539        N540   1.323       .  A
N539        C543   1.335       .  A
N540        C541   1.362       .  A
C541        C542   1.399       .  A
C541        H544   1.083       .  S
C542        C543   1.374       .  A
C543        H545   1.078       .  S
N546        N547   1.326       .  A
N546        C550   1.356       .  A
N547        C548   1.340       .  A
C548        C549   1.376       .  A
C548        H551   1.082       .  S
C549       C2338   1.493       .  S
C549        C550   1.397       .  A
C550        H552   1.082       .  S
N553        N554   1.317       .  A
N553        C557   1.345       .  A
N553       Cu561   2.058       .  S
N554        C555   1.342       .  A
N554       Cu560   2.054       .  S
C555        C556   1.382       .  A
C555        H558   1.081       .  S
C556       C2318   1.470       .  S
C556        C557   1.383       .  A
C557        H559   1.082       .  S
Cu560       N563   2.055       .  S
Cu561       N571   2.060       .  S
Cu562       N564   2.151       .  S
Cu562       N570   2.153       .  S
N563        N564   1.324       .  A
N563        C567   1.338       .  A
N564        C565   1.364       .  A
C565        C566   1.402       .  A
C565        H568   1.082       .  S
C566        C567   1.376       .  A
C567        H569   1.080       .  S
N570        N571   1.327       .  A
N570        C574   1.360       .  A
N571        C572   1.341       .  A
C572        C573   1.373       .  A
C572        H575   1.081       .  S
C573       C2298   1.492       .  S
C573        C574   1.399       .  A
C574        H576   1.082       .  S
N577        N578   1.316       .  A
N577        C581   1.345       .  A
N577       Cu585   2.060       .  S
N578        C579   1.341       .  A
N578       Cu584   2.051       .  S
C579        C580   1.383       .  A
C579        H582   1.082       .  S
C580       C2309   1.478       .  S
C580        C581   1.386       .  A
C581        H583   1.082       .  S
Cu584       N587   2.051       .  S
Cu585       N595   2.062       .  S
Cu586       N588   2.121       .  S
Cu586       N594   2.124       .  S
N587        N588   1.323       .  A
N587        C591   1.335       .  A
N588        C589   1.360       .  A
C589        C590   1.397       .  A
C589        H592   1.083       .  S
C590        C591   1.376       .  A
C591        H593   1.078       .  S
N594        N595   1.327       .  A
N594        C598   1.355       .  A
N595        C596   1.340       .  A
C596        C597   1.373       .  A
C596        H599   1.081       .  S
C597       C2269   1.482       .  S
C597        C598   1.392       .  A
C598        H600   1.082       .  S
N601        N602   1.318       .  A
N601        C605   1.345       .  A
N601       Cu609   2.062       .  S
N602        C603   1.344       .  A
N602       Cu608   2.062       .  S
C603        C604   1.385       .  A
C603        H606   1.082       .  S
C604       C2249   1.479       .  S
C604        C605   1.385       .  A
C605        H607   1.082       .  S
Cu608       N611   2.064       .  S
Cu609       N619   2.063       .  S
Cu610       N612   2.144       .  S
Cu610       N618   2.145       .  S
N611        N612   1.324       .  A
N611        C615   1.339       .  A
N612        C613   1.363       .  A
C613        C614   1.400       .  A
C613        H616   1.082       .  S
C614        C615   1.379       .  A
C615        H617   1.079       .  S
N618        N619   1.326       .  A
N618        C622   1.358       .  A
N619        C620   1.342       .  A
C620        C621   1.377       .  A
C620        H623   1.080       .  S
C621       C2229   1.497       .  S
C621        C622   1.399       .  A
C622        H624   1.083       .  S
N625        N626   1.317       .  A
N625        C629   1.349       .  A
N625       Cu633   2.090       .  S
N626        C627   1.341       .  A
N626       Cu632   2.045       .  S
C627        C628   1.382       .  A
C627        H630   1.081       .  S
C628       C2258   1.488   1_545  S
C628        C629   1.394       .  A
C629        H631   1.082       .  S
Cu632       N635   2.046       .  S
Cu633       N643   2.094       .  S
Cu634       N636   2.117       .  S
Cu634       N642   2.120       .  S
N635        N636   1.321       .  A
N635        C639   1.336       .  A
N636        C637   1.359       .  A
C637        C638   1.396       .  A
C637        H640   1.082       .  S
C638        C639   1.376       .  A
C639        H641   1.079       .  S
N642        N643   1.327       .  A
N642        C646   1.354       .  A
N643        C644   1.344       .  A
C644        C645   1.385       .  A
C644        H647   1.083       .  S
C645       C2209   1.500       .  S
C645        C646   1.393       .  A
C646        H648   1.082       .  S
N649        N650   1.318       .  A
N649        C653   1.346       .  A
N649       Cu657   2.059       .  S
N650        C651   1.346       .  A
N650       Cu656   2.073       .  S
C651        C652   1.385       .  A
C651        H654   1.082       .  S
C652       C2198   1.477       .  S
C652        C653   1.383       .  A
C653        H655   1.082       .  S
Cu656       N659   2.075       .  S
Cu657       N667   2.059       .  S
Cu658       N660   2.153       .  S
Cu658       N666   2.154       .  S
N659        N660   1.325       .  A
N659        C663   1.339       .  A
N660        C661   1.366       .  A
C661        C662   1.403       .  A
C661        H664   1.082       .  S
C662        C663   1.381       .  A
C663        H665   1.082       .  S
N666        N667   1.326       .  A
N666        C670   1.360       .  A
N667        C668   1.341       .  A
C668        C669   1.376       .  A
C668        H671   1.079       .  S
C669       C2169   1.498       .  S
C669        C670   1.401       .  A
C670        H672   1.085       .  S
N673        N674   1.318       .  A
N673        C677   1.346       .  A
N673       Cu681   2.067       .  S
N674        C675   1.342       .  A
N674       Cu680   2.052       .  S
C675        C676   1.380       .  A
C675        H678   1.080       .  S
C676       C2189   1.473       .  S
C676        C677   1.385       .  A
C677        H679   1.082       .  S
Cu680       N683   2.051       .  S
Cu681       N691   2.068       .  S
Cu682       N684   2.132       .  S
Cu682       N690   2.134       .  S
N683        N684   1.322       .  A
N683        C687   1.336       .  A
N684        C685   1.362       .  A
C685        C686   1.400       .  A
C685        H688   1.082       .  S
C686        C687   1.376       .  A
C687        H689   1.079       .  S
N690        N691   1.326       .  A
N690        C694   1.358       .  A
N691        C692   1.341       .  A
C692        C693   1.378       .  A
C692        H695   1.082       .  S
C693       C2158   1.496       .  S
C693        C694   1.398       .  A
C694        H696   1.081       .  S
N697        N698   1.316       .  A
N697        C701   1.345       .  A
N697       Cu705   2.056       .  S
N698        C699   1.342       .  A
N698       Cu704   2.055       .  S
C699        C700   1.382       .  A
C699        H702   1.081       .  S
C700       C2129   1.473       .  S
C700        C701   1.384       .  A
C701        H703   1.082       .  S
Cu704       N707   2.054       .  S
Cu705       N715   2.058       .  S
Cu706       N708   2.160       .  S
Cu706       N714   2.163       .  S
N707        N708   1.323       .  A
N707        C711   1.336       .  A
N708        C709   1.368       .  A
C709        C710   1.407       .  A
C709        H712   1.083       .  S
C710        C711   1.377       .  A
C711        H713   1.078       .  S
N714        N715   1.329       .  A
N714        C718   1.359       .  A
N715        C716   1.342       .  A
C716        C717   1.372       .  A
C716        H719   1.081       .  S
C717       C2109   1.492       .  S
C717        C718   1.399       .  A
C718        H720   1.083       .  S
N721        N722   1.319       .  A
N721        C725   1.348       .  A
N721       Cu729   2.070       .  S
N722        C723   1.341       .  A
N722       Cu728   2.058       .  S
C723        C724   1.382       .  A
C723        H726   1.082       .  S
C724       C2138   1.478       .  S
C724        C725   1.387       .  A
C725        H727   1.082       .  S
Cu728       N731   2.058       .  S
Cu729       N739   2.072       .  S
Cu730       N732   2.117       .  S
Cu730       N738   2.119       .  S
N731        N732   1.322       .  A
N731        C735   1.338       .  A
N732        C733   1.358       .  A
C733        C734   1.395       .  A
C733        H736   1.082       .  S
C734        C735   1.379       .  A
C735        H737   1.079       .  S
N738        N739   1.326       .  A
N738        C742   1.353       .  A
N739        C740   1.343       .  A
C740        C741   1.377       .  A
C740        H743   1.081       .  S
C741       C2098   1.484       .  S
C741        C742   1.391       .  A
C742        H744   1.081       .  S
N745        N746   1.319       .  A
N745        C749   1.346       .  A
N745       Cu753   2.063       .  S
N746        C747   1.342       .  A
N746       Cu752   2.059       .  S
C747        C748   1.382       .  A
C747        H750   1.081       .  S
C748       C2069   1.475       .  S
C748        C749   1.384       .  A
C749        H751   1.082       .  S
Cu752       N755   2.059       .  S
Cu753       N763   2.063       .  S
Cu754       N756   2.113       .  S
Cu754       N762   2.117       .  S
N755        N756   1.322       .  A
N755        C759   1.336       .  A
N756        C757   1.359       .  A
C757        C758   1.395       .  A
C757        H760   1.081       .  S
C758        C759   1.379       .  A
C759        H761   1.081       .  S
N762        N763   1.324       .  A
N762        C766   1.354       .  A
N763        C764   1.340       .  A
C764        C765   1.380       .  A
C764        H767   1.082       .  S
C765       C2049   1.494       .  S
C765        C766   1.395       .  A
C766        H768   1.080       .  S
N769        N770   1.318       .  A
N769        C773   1.344       .  A
N769       Cu777   2.056       .  S
N770        C771   1.344       .  A
N770       Cu776   2.064       .  S
C771        C772   1.383       .  A
C771        H774   1.081       .  S
C772       C2078   1.471       .  S
C772        C773   1.381       .  A
C773        H775   1.082       .  S
Cu776       N779   2.066       .  S
Cu777       N787   2.057       .  S
Cu778       N780   2.144       .  S
Cu778       N786   2.146       .  S
N779        N780   1.324       .  A
N779        C783   1.337       .  A
N780        C781   1.364       .  A
C781        C782   1.401       .  A
C781        H784   1.082       .  S
C782        C783   1.379       .  A
C783        H785   1.082       .  S
N786        N787   1.326       .  A
N786        C790   1.359       .  A
N787        C788   1.341       .  A
C788        C789   1.374       .  A
C788        H791   1.081       .  S
C789       C2029   1.491       .  S
C789        C790   1.398       .  A
C790        H792   1.083       .  S
N793        N794   1.316       .  A
N793        C797   1.344       .  A
N793       Cu801   2.055   1_565  S
N794        C795   1.344       .  A
N794       Cu800   2.059       .  S
C795        C796   1.386       .  A
C795        H798   1.081       .  S
C796       C2009   1.477       .  S
C796        C797   1.384       .  A
C797        H799   1.081   1_565  S
Cu800       N803   2.060       .  S
Cu801       N811   2.056       .  S
Cu802       N804   2.144   1_545  S
Cu802       N810   2.144       .  S
N803        N804   1.325       .  A
N803        C807   1.336       .  A
N804        C805   1.364       .  A
C805        C806   1.400       .  A
C805        H808   1.082       .  S
C806        C807   1.376       .  A
C807        H809   1.080       .  S
N810        N811   1.325       .  A
N810        C814   1.359       .  A
N811        C812   1.338       .  A
C812        C813   1.378       .  A
C812        H815   1.083       .  S
C813       C1989   1.501       .  S
C813        C814   1.402       .  A
C814        H816   1.082       .  S
N817        N818   1.318       .  A
N817        C821   1.344       .  A
N817       Cu825   2.055       .  S
N818        C819   1.342   1_545  A
N818       Cu824   2.059       .  S
C819        C820   1.382   1_565  A
C819        H822   1.082       .  S
C820       C2018   1.473   1_545  S
C820        C821   1.383       .  A
C821        H823   1.084       .  S
Cu824       N827   2.059   1_545  S
Cu825       N835   2.056       .  S
Cu826       N828   2.120   1_545  S
Cu826       N834   2.122       .  S
N827        N828   1.323       .  A
N827        C831   1.336       .  A
N828        C829   1.360       .  A
C829        C830   1.396       .  A
C829        H832   1.082       .  S
C830        C831   1.379       .  A
C831        H833   1.081       .  S
N834        N835   1.326       .  A
N834        C838   1.354       .  A
N835        C836   1.341       .  A
C836        C837   1.373       .  A
C836        H839   1.081       .  S
C837       C1969   1.479       .  S
C837        C838   1.391       .  A
C838        H840   1.082       .  S
N841        N842   1.316       .  A
N841        C845   1.346       .  A
N841       Cu849   2.066       .  S
N842        C843   1.343       .  A
N842       Cu848   2.057       .  S
C843        C844   1.386       .  A
C843        H846   1.081       .  S
C844       C1949   1.485       .  S
C844        C845   1.389       .  A
C845        H847   1.081       .  S
Cu848       N851   2.057   1_545  S
Cu849       N859   2.067       .  S
Cu850       N852   2.139   1_545  S
Cu850       N858   2.141       .  S
N851        N852   1.324       .  A
N851        C855   1.336       .  A
N852        C853   1.363       .  A
C853        C854   1.400       .  A
C853        H856   1.082       .  S
C854        C855   1.377       .  A
C855        H857   1.078       .  S
N858        N859   1.327       .  A
N858        C862   1.360       .  A
N859        C860   1.339       .  A
C860        C861   1.376       .  A
C860        H863   1.083       .  S
C861       C1929   1.492       .  S
C861        C862   1.398       .  A
C862        H864   1.081       .  S
N865        N866   1.316       .  A
N865        C869   1.343       .  A
N865       Cu873   2.051       .  S
N866        C867   1.342       .  A
N866       Cu872   2.049   1_545  S
C867        C868   1.382       .  A
C867        H870   1.082   1_545  S
C868       C1958   1.473       .  S
C868        C869   1.384       .  A
C869        H871   1.082       .  S
Cu872       N875   2.049       .  S
Cu873       N883   2.050       .  S
Cu874       N876   2.149   1_545  S
Cu874       N882   2.151       .  S
N875        N876   1.323       .  A
N875        C879   1.335       .  A
N876        C877   1.365       .  A
C877        C878   1.403       .  A
C877        H880   1.083       .  S
C878        C879   1.376       .  A
C879        H881   1.077       .  S
N882        N883   1.326       .  A
N882        C886   1.359       .  A
N883        C884   1.340       .  A
C884        C885   1.372       .  A
C884        H887   1.083       .  S
C885       C1909   1.492       .  S
C885        C886   1.400       .  A
C886        H888   1.082       .  S
N889        N890   1.317       .  A
N889        C893   1.344       .  A
N889       Cu897   2.059       .  S
N890        C891   1.345       .  A
N890       Cu896   2.055       .  S
C891        C892   1.382       .  A
C891        H894   1.080       .  S
C892       C1889   1.472       .  S
C892        C893   1.383       .  A
C893        H895   1.081       .  S
Cu896       N899   2.052       .  S
Cu897       N907   2.061       .  S
Cu898       N900   2.144       .  S
Cu898       N906   2.146       .  S
N899        N900   1.323       .  A
N899        C903   1.334       .  A
N900        C901   1.365       .  A
C901        C902   1.403       .  A
C901        H904   1.082       .  S
C902        C903   1.375       .  A
C903        H905   1.081       .  S
N906        N907   1.326       .  A
N906        C910   1.358       .  A
N907        C908   1.341       .  A
C908        C909   1.377       .  A
C908        H911   1.079       .  S
C909       C1869   1.499       .  S
C909        C910   1.400       .  A
C910        H912   1.084       .  S
N913        N914   1.316       .  A
N913        C917   1.344       .  A
N913       Cu921   2.064       .  S
N914        C915   1.345       .  A
N914       Cu920   2.054       .  S
C915        C916   1.385       .  A
C915        H918   1.081       .  S
C916       C1898   1.483       .  S
C916        C917   1.387       .  A
C917        H919   1.081       .  S
Cu920       N923   2.053       .  S
Cu921       N931   2.066       .  S
Cu922       N924   2.145       .  S
Cu922       N930   2.147       .  S
N923        N924   1.324       .  A
N923        C927   1.335       .  A
N924        C925   1.365       .  A
C925        C926   1.401       .  A
C925        H928   1.082       .  S
C926        C927   1.374       .  A
C927        H929   1.076       .  S
N930        N931   1.326       .  A
N930        C934   1.358       .  A
N931        C932   1.342       .  A
C932        C933   1.378       .  A
C932        H935   1.080       .  S
C933       C1849   1.496       .  S
C933        C934   1.398       .  A
C934        H936   1.078       .  S
N937        N938   1.316       .  A
N937        C941   1.344       .  A
N937       Cu945   2.055       .  S
N938        C939   1.343       .  A
N938       Cu944   2.058       .  S
C939        C940   1.384       .  A
C939        H942   1.081       .  S
C940       C1838   1.477       .  S
C940        C941   1.385       .  A
C941        H943   1.082       .  S
Cu944       N947   2.059       .  S
Cu945       N955   2.058       .  S
Cu946       N948   2.145       .  S
Cu946       N954   2.147       .  S
N947        N948   1.324       .  A
N947        C951   1.336       .  A
N948        C949   1.365       .  A
C949        C950   1.403       .  A
C949        H952   1.081       .  S
C950        C951   1.378       .  A
C951        H953   1.081       .  S
N954        N955   1.326       .  A
N954        C958   1.359       .  A
N955        C956   1.340       .  A
C956        C957   1.375       .  A
C956        H959   1.076       .  S
C957       C1809   1.494       .  S
C957        C958   1.399       .  A
C958        H960   1.084       .  S
N961        N962   1.317       .  A
N961        C965   1.346       .  A
N961       Cu969   2.063       .  S
N962        C963   1.340       .  A
N962       Cu968   2.046       .  S
C963        C964   1.379       .  A
C963        H966   1.082       .  S
C964       C1829   1.470       .  S
C964        C965   1.385       .  A
C965        H967   1.082       .  S
Cu968       N971   2.046       .  S
Cu969       N979   2.065       .  S
Cu970       N972   2.158       .  S
Cu970       N978   2.160       .  S
N971        N972   1.322       .  A
N971        C975   1.337       .  A
N972        C973   1.365       .  A
C973        C974   1.405       .  A
C973        H976   1.082       .  S
C974        C975   1.375       .  A
C975        H977   1.075       .  S
N978        N979   1.327       .  A
N978        C982   1.362       .  A
N979        C980   1.341       .  A
C980        C981   1.375       .  A
C980        H983   1.081       .  S
C981       C1789   1.499       .  S
C981        C982   1.401       .  A
C982        H984   1.080       .  S
N985        N986   1.316       .  A
N985        C989   1.342       .  A
N985       Cu993   2.047       .  S
N986        C987   1.345       .  A
N986       Cu992   2.063       .  S
C987        C988   1.385       .  A
C987        H990   1.081       .  S
C988       C1769   1.473       .  S
C988        C989   1.381       .  A
C989        H991   1.082       .  S
Cu992       N995   2.063   1_545  S
Cu993      N1003   2.047       .  S
Cu994       N996   2.122   1_545  S
Cu994      N1002   2.124       .  S
N995        N996   1.324       .  A
N995        C999   1.333       .  A
N996        C997   1.362       .  A
C997        C998   1.397       .  A
C997       H1000   1.082       .  S
C998        C999   1.377       .  A
C999       H1001   1.079       .  S
N1002      N1003   1.325       .  A
N1002      C1006   1.355       .  A
N1003      C1004   1.338       .  A
C1004      C1005   1.371       .  A
C1004      H1007   1.081       .  S
C1005      C1749   1.480       .  S
C1005      C1006   1.393       .  A
C1006      H1008   1.081       .  S
N1009      N1010   1.316       .  A
N1009      C1013   1.345       .  A
N1009     Cu1017   2.060       .  S
N1010      C1011   1.341       .  A
N1010     Cu1016   2.049       .  S
C1011      C1012   1.381       .  A
C1011      H1014   1.082       .  S
C1012      C1778   1.473       .  S
C1012      C1013   1.386       .  A
C1013      H1015   1.081       .  S
Cu1016     N1019   2.047   1_545  S
Cu1017     N1027   2.062       .  S
Cu1018     N1020   2.168   1_545  S
Cu1018     N1026   2.170       .  S
N1019      N1020   1.323       .  A
N1019      C1023   1.334       .  A
N1020      C1021   1.369       .  A
C1021      C1022   1.409       .  A
C1021      H1024   1.082       .  S
C1022      C1023   1.376       .  A
C1023      H1025   1.082       .  S
N1026      N1027   1.328       .  A
N1026      C1030   1.362       .  A
N1027      C1028   1.342       .  A
C1028      C1029   1.375       .  A
C1028      H1031   1.079       .  S
C1029      C1729   1.501       .  S
C1029      C1030   1.403       .  A
C1030      H1032   1.081       .  S
N1033      N1034   1.319       .  A
N1033      C1037   1.345       .  A
N1033     Cu1041   2.067       .  S
N1034      C1035   1.346       .  A
N1034     Cu1040   2.066       .  S
C1035      C1036   1.383       .  A
C1035      H1038   1.082       .  S
C1036      C1718   1.475       .  S
C1036      C1037   1.383       .  A
C1037      H1039   1.082       .  S
Cu1040     N1043   2.067       .  S
Cu1041     N1051   2.067       .  S
Cu1042     N1044   2.118       .  S
Cu1042     N1050   2.119       .  S
N1043      N1044   1.323       .  A
N1043      C1047   1.336       .  A
N1044      C1045   1.361       .  A
C1045      C1046   1.395       .  A
C1045      H1048   1.082       .  S
C1046      C1047   1.379       .  A
C1047      H1049   1.076       .  S
N1050      N1051   1.325       .  A
N1050      C1054   1.354       .  A
N1051      C1052   1.341       .  A
C1052      C1053   1.378       .  A
C1052      H1055   1.079       .  S
C1053      C1689   1.488       .  S
C1053      C1054   1.393       .  A
C1054      H1056   1.083       .  S
N1057      N1058   1.316       .  A
N1057      C1061   1.346       .  A
N1057     Cu1065   2.065       .  S
N1058      C1059   1.342       .  A
N1058     Cu1064   2.053       .  S
C1059      C1060   1.384       .  A
C1059      H1062   1.082       .  S
C1060      C1709   1.482       .  S
C1060      C1061   1.389       .  A
C1061      H1063   1.081       .  S
Cu1064     N1067   2.052       .  S
Cu1065     N1075   2.067       .  S
Cu1066     N1068   2.157       .  S
Cu1066     N1074   2.159       .  S
N1067      N1068   1.323       .  A
N1067      C1071   1.335       .  A
N1068      C1069   1.367       .  A
C1069      C1070   1.405       .  A
C1069      H1072   1.082       .  S
C1070      C1071   1.376       .  A
C1071      H1073   1.081       .  S
N1074      N1075   1.327       .  A
N1074      C1078   1.361       .  A
N1075      C1076   1.341       .  A
C1076      C1077   1.376       .  A
C1076      H1079   1.080       .  S
C1077      C1678   1.501       .  S
C1077      C1078   1.402       .  A
C1078      H1080   1.083       .  S
N1081      N1082   1.316       .  A
N1081      C1085   1.343       .  A
N1081     Cu1089   2.052       .  S
N1082      C1083   1.342       .  A
N1082     Cu1088   2.050       .  S
C1083      C1084   1.383       .  A
C1083      H1086   1.081       .  S
C1084      C1649   1.475       .  S
C1084      C1085   1.384       .  A
C1085      H1087   1.081       .  S
Cu1088     N1091   2.050       .  S
Cu1089     N1099   2.054       .  S
Cu1090     N1092   2.118       .  S
Cu1090     N1098   2.120       .  S
N1091      N1092   1.322       .  A
N1091      C1095   1.333       .  A
N1092      C1093   1.360       .  A
C1093      C1094   1.397       .  A
C1093      H1096   1.081       .  S
C1094      C1095   1.376       .  A
C1095      H1097   1.081       .  S
N1098      N1099   1.326       .  A
N1098      C1102   1.354       .  A
N1099      C1100   1.339       .  A
C1100      C1101   1.374       .  A
C1100      H1103   1.083       .  S
C1101      C1638   1.481       .  S
C1101      C1102   1.391       .  A
C1102      H1104   1.080       .  S
N1105      N1106   1.318       .  A
N1105      C1109   1.344       .  A
N1105     Cu1113   2.055       .  S
N1106      C1107   1.343       .  A
N1106     Cu1112   2.060       .  S
C1107      C1108   1.383       .  A
C1107      H1110   1.082       .  S
C1108      C1658   1.472       .  S
C1108      C1109   1.382       .  A
C1109      H1111   1.083       .  S
Cu1112     N1115   2.061       .  S
Cu1113     N1123   2.055       .  S
Cu1114     N1116   2.147       .  S
Cu1114     N1122   2.150       .  S
N1115      N1116   1.324       .  A
N1115      C1119   1.337       .  A
N1116      C1117   1.365       .  A
C1117      C1118   1.402       .  A
C1117      H1120   1.081       .  S
C1118      C1119   1.379       .  A
C1119      H1121   1.083       .  S
N1122      N1123   1.325       .  A
N1122      C1126   1.361       .  A
N1123      C1124   1.341       .  A
C1124      C1125   1.374       .  A
C1124      H1127   1.079       .  S
C1125      C1609   1.494       .  S
C1125      C1126   1.400       .  A
C1126      H1128   1.080       .  S
N1129      N1130   1.317       .  A
N1129      C1133   1.347       .  A
N1129     Cu1137   2.071       .  S
N1130      C1131   1.341       .  A
N1130     Cu1136   2.043       .  S
C1131      C1132   1.379       .  A
C1131      H1134   1.081       .  S
C1132      C1589   1.474       .  S
C1132      C1133   1.387       .  A
C1133      H1135   1.081       .  S
Cu1136     N1139   2.042       .  S
Cu1137     N1147   2.070       .  S
Cu1138     N1140   2.122       .  S
Cu1138     N1146   2.125       .  S
N1139      N1140   1.321       .  A
N1139      C1143   1.333       .  A
N1140      C1141   1.361       .  A
C1141      C1142   1.399       .  A
C1141      H1144   1.082       .  S
C1142      C1143   1.375       .  A
C1143      H1145   1.079       .  S
N1146      N1147   1.326       .  A
N1146      C1150   1.354       .  A
N1147      C1148   1.341       .  A
C1148      C1149   1.380       .  A
C1148      H1151   1.082       .  S
C1149      C1569   1.498       .  S
C1149      C1150   1.396       .  A
C1150      H1152   1.082       .  S
N1153      N1154   1.318       .  A
N1153      C1157   1.348       .  A
N1153     Cu1161   2.071       .  S
N1154      C1155   1.345       .  A
N1154     Cu1160   2.076       .  S
C1155      C1156   1.388       .  A
C1155      H1158   1.081       .  S
C1156      C1598   1.489       .  S
C1156      C1157   1.388       .  A
C1157      H1159   1.081       .  S
Cu1160     N1163   2.077       .  S
Cu1161     N1171   2.074       .  S
Cu1162     N1164   2.166       .  S
Cu1162     N1170   2.168       .  S
N1163      N1164   1.325       .  A
N1163      C1167   1.340       .  A
N1164      C1165   1.368       .  A
C1165      C1166   1.406       .  A
C1165      H1168   1.082       .  S
C1166      C1167   1.382       .  A
C1167      H1169   1.081       .  S
N1170      N1171   1.328       .  A
N1170      C1174   1.362       .  A
N1171      C1172   1.345       .  A
C1172      C1173   1.378       .  A
C1172      H1175   1.080       .  S
C1173      C1549   1.504       .  S
C1173      C1174   1.402       .  A
C1174      H1176   1.082       .  S
N1177      N1178   1.316       .  A
N1177      C1181   1.343       .  A
N1177     Cu1185   2.045       .  S
N1178      C1179   1.344       .  A
N1178     Cu1184   2.063       .  S
C1179      C1180   1.384       .  A
C1179      H1182   1.082       .  S
C1180      C1529   1.470       .  S
C1180      C1181   1.381       .  A
C1181      H1183   1.082       .  S
Cu1184     N1187   2.062       .  S
Cu1185     N1195   2.046       .  S
Cu1186     N1188   2.145       .  S
Cu1186     N1194   2.147       .  S
N1187      N1188   1.324       .  A
N1187      C1191   1.335       .  A
N1188      C1189   1.365       .  A
C1189      C1190   1.403       .  A
C1189      H1192   1.083       .  S
C1190      C1191   1.378       .  A
C1191      H1193   1.079       .  S
N1194      N1195   1.326       .  A
N1194      C1198   1.358       .  A
N1195      C1196   1.339       .  A
C1196      C1197   1.371       .  A
C1196      H1199   1.080       .  S
C1197      C1518   1.489       .  S
C1197      C1198   1.398       .  A
C1198      H1200   1.084       .  S
N1201      N1202   1.319       .  A
N1201      C1205   1.345       .  A
N1201     Cu1209   2.064       .  S
N1202      C1203   1.343       .  A
N1202     Cu1208   2.058       .  S
C1203      C1204   1.381       .  A
C1203      H1206   1.080       .  S
C1204      C1538   1.469       .  S
C1204      C1205   1.382       .  A
C1205      H1207   1.083       .  S
Cu1208     N1211   2.056       .  S
Cu1209     N1219   2.060       .  S
Cu1210     N1212   2.132       .  S
Cu1210     N1218   2.136       .  S
N1211      N1212   1.322       .  A
N1211      C1215   1.336       .  A
N1212      C1213   1.363       .  A
C1213      C1214   1.400       .  A
C1213      H1216   1.082       .  S
C1214      C1215   1.379       .  A
C1215      H1217   1.079       .  S
N1218      N1219   1.324       .  A
N1218      C1222   1.358       .  A
N1219      C1220   1.340       .  A
C1220      C1221   1.378       .  A
C1220      H1223   1.082       .  S
C1221      C1489   1.497       .  S
C1221      C1222   1.399       .  A
C1222      H1224   1.081       .  S
C1225      C2698   1.538       .  S
C1225      C1226   1.440       .  A
C1225      C1230   1.448       .  A
C1226      C1669   1.543       .  S
C1226      C1227   1.453       .  A
C1227      C2409   1.548       .  S
C1227      C1228   1.457       .  A
C1228      C1509   1.545       .  S
C1228      C1229   1.459       .  A
C1229      C2289   1.551       .  S
C1229      C1230   1.446       .  A
C1230      C1469   1.538       .  S
C1231      C2658   1.561       .  S
C1231      C1232   1.461       .  A
C1231      C1236   1.452       .  A
C1232      C1498   1.567       .  S
C1232      C1233   1.467       .  A
C1233      C2778   1.530       .  S
C1233      C1234   1.429       .  A
C1234      C1558   1.529       .  S
C1234      C1235   1.425       .  A
C1235      C2718   1.520       .  S
C1235      C1236   1.423       .  A
C1236      C1618   1.541       .  S
C1237      C2629   1.574       .  S
C1237      C1238   1.471       .  A
C1237      C1242   1.463       .  A
C1238      C1798   1.558       .  S
C1238      C1239   1.430       .  A
C1239      C2598   1.565       .  S
C1239      C1240   1.421       .  A
C1240      C1578   1.568       .  S
C1240      C1241   1.431       .  A
C1241      C2538   1.562       .  S
C1241      C1242   1.471       .  A
C1242      C1858   1.583       .  S
C1243      C1918   1.524       .  S
C1243      C1244   1.437       .  A
C1243      C1248   1.471       .  A
C1244      C2749   1.537       .  S
C1244      C1245   1.423       .  A
C1245      C1738   1.518       .  S
C1245      C1246   1.419       .  A
C1246      C2478   1.518       .  S
C1246      C1247   1.439       .  A
C1247      C1629   1.554       .  S
C1247      C1248   1.462       .  A
C1248      C2349   1.564       .  S
N1249      N1250   1.316       .  A
N1249      C1253   1.341       .  A
N1249     Cu1257   2.045       .  S
N1250      C1251   1.345       .  A
N1250     Cu1256   2.058       .  S
C1251      C1252   1.385       .  A
C1251      H1254   1.083       .  S
C1252      C1449   1.472       .  S
C1252      C1253   1.381       .  A
C1253      H1255   1.082       .  S
Cu1256     N1259   2.057       .  S
Cu1257     N1267   2.045       .  S
Cu1258     N1260   2.148       .  S
Cu1258     N1266   2.149       .  S
N1259      N1260   1.325       .  A
N1259      C1263   1.335       .  A
N1260      C1261   1.366       .  A
C1261      C1262   1.402       .  A
C1261      H1264   1.081       .  S
C1262      C1263   1.374       .  A
C1263      H1265   1.079       .  S
N1266      N1267   1.326       .  A
N1266      C1270   1.359       .  A
N1267      C1268   1.339       .  A
C1268      C1269   1.371       .  A
C1268      H1271   1.081       .  S
C1269      C1429   1.489       .  S
C1269      C1270   1.399       .  A
C1270      H1272   1.082       .  S
N1273      N1274   1.316       .  A
N1273      C1277   1.343       .  A
N1273     Cu1281   2.049       .  S
N1274      C1275   1.343       .  A
N1274     Cu1280   2.060       .  S
C1275      C1276   1.385       .  A
C1275      H1278   1.082       .  S
C1276      C1458   1.477       .  S
C1276      C1277   1.384       .  A
C1277      H1279   1.082       .  S
Cu1280     N1283   2.060       .  S
Cu1281     N1291   2.050       .  S
Cu1282     N1284   2.155       .  S
Cu1282     N1290   2.156       .  S
N1283      N1284   1.325       .  A
N1283      C1287   1.337       .  A
N1284      C1285   1.365       .  A
C1285      C1286   1.404       .  A
C1285      H1288   1.083       .  S
C1286      C1287   1.376       .  A
C1287      H1289   1.078       .  S
N1290      N1291   1.326       .  A
N1290      C1294   1.361       .  A
N1291      C1292   1.339       .  A
C1292      C1293   1.372       .  A
C1292      H1295   1.079       .  S
C1293      C1478   1.494       .  S
C1293      C1294   1.401       .  A
C1294      H1296   1.083       .  S
C1297      C2398   1.553       .  S
C1297      C1298   1.445       .  A
C1297      C1302   1.461       .  A
C1298      C1418   1.538       .  S
C1298      C1299   1.426       .  A
C1299      C2458   1.516       .  S
C1299      C1300   1.430       .  A
C1300      C1438   1.531       .  S
C1300      C1301   1.434       .  A
C1301      C2118   1.533       .  S
C1301      C1302   1.464       .  A
C1302      C1938   1.554       .  S
C1303      C2278   1.543       .  S
C1303      C1304   1.449       .  A
C1303      C1308   1.456       .  A
C1304      C2038   1.554       .  S
C1304      C1305   1.462       .  A
C1305      C2569   1.559       .  S
C1305      C1306   1.450       .  A
C1306      C1698   1.535       .  S
C1306      C1307   1.452       .  A
C1307      C2238   1.543       .  S
C1307      C1308   1.431       .  A
C1308      C1878   1.546       .  S
C1309      C2509   1.542       .  S
C1309      C1310   1.442       .  A
C1309      C1314   1.448       .  A
C1310      C1758   1.539       .  S
C1310      C1311   1.455       .  A
C1311      C2178   1.547       .  S
C1311      C1312   1.446       .  A
C1312      C1818   1.543       .  S
C1312      C1313   1.456       .  A
C1313      C2329   1.539       .  S
C1313      C1314   1.439       .  A
C1314      C1978   1.540       .  S
N1315      N1316   1.315       .  A
N1315      C1319   1.347       .  A
N1315     Cu1323   2.065       .  S
N1316      C1317   1.341       .  A
N1316     Cu1322   2.047       .  S
C1317      C1318   1.383       .  A
C1317      H1320   1.081       .  S
C1318      C1389   1.481       .  S
C1318      C1319   1.389       .  A
C1319      H1321   1.080       .  S
Cu1322     N1325   2.046   1_545  S
Cu1323     N1333   2.066       .  S
Cu1324     N1326   2.140   1_545  S
Cu1324     N1332   2.144       .  S
N1325      N1326   1.323       .  A
N1325      C1329   1.333       .  A
N1326      C1327   1.364       .  A
C1327      C1328   1.402       .  A
C1327      H1330   1.082       .  S
C1328      C1329   1.374       .  A
C1329      H1331   1.081       .  S
N1332      N1333   1.328       .  A
N1332      C1336   1.359       .  A
N1333      C1334   1.340       .  A
C1334      C1335   1.372       .  A
C1334      H1337   1.081       .  S
C1335      C1369   1.488       .  S
C1335      C1336   1.397       .  A
C1336      H1338   1.080       .  S
N1339      N1340   1.318       .  A
N1339      C1343   1.345       .  A
N1339     Cu1347   2.062       .  S
N1340      C1341   1.346   1_545  A
N1340     Cu1346   2.072   1_545  S
C1341      C1342   1.386   1_565  A
C1341      H1344   1.081       .  S
C1342      C1398   1.480       .  S
C1342      C1343   1.384       .  A
C1343      H1345   1.080       .  S
Cu1346     N1349   2.072       .  S
Cu1347     N1357   2.062       .  S
Cu1348     N1350   2.155   1_545  S
Cu1348     N1356   2.157       .  S
N1349      N1350   1.325       .  A
N1349      C1353   1.338       .  A
N1350      C1351   1.367       .  A
C1351      C1352   1.404       .  A
C1351      H1354   1.082       .  S
C1352      C1353   1.380       .  A
C1353      H1355   1.081       .  S
N1356      N1357   1.326       .  A
N1356      C1360   1.361       .  A
N1357      C1358   1.342       .  A
C1358      C1359   1.374       .  A
C1358      H1361   1.081       .  S
C1359      C1409   1.497       .  S
C1359      C1360   1.401       .  A
C1360      H1362   1.083       .  S
C1363      C2149   1.563       .  S
C1363      C1364   1.424       .  A
C1363      C1368   1.415       .  A
C1364      C1378   1.561       .  S
C1364      C1365   1.478       .  A
C1365      C2218   1.580       .  S
C1365      C1366   1.477       .  A
C1366      C1998   1.568       .  S
C1366      C1367   1.471       .  A
C1367      C2089   1.555       .  S
C1367      C1368   1.418       .  A
C1368      C2058   1.559       .  S
C1369      C1370   1.411       .  A
C1369      C1374   1.410       .  A
C1370      C1371   1.415       .  A
C1370     Br1382   1.928       .  S
C1371      C1372   1.413       .  A
C1371     Br1386   1.929       .  S
C1372      C1375   1.505       .  S
C1372      C1373   1.414       .  A
C1373      C1374   1.413       .  A
C1373     Br1381   1.929       .  S
C1374     Br1385   1.929       .  S
C1375      C1376   1.396       .  A
C1375      C1380   1.403       .  A
C1376      C1377   1.417       .  A
C1376     Br1387   1.940       .  S
C1377      C1378   1.434       .  A
C1377     Br1383   1.887       .  S
C1378      C1379   1.441       .  A
C1379      C1380   1.423       .  A
C1379     Br1388   1.909       .  S
C1380     Br1384   1.938       .  S
C1389      C1390   1.412       .  A
C1389      C1394   1.412       .  A
C1390      C1391   1.409       .  A
C1390     Br1402   1.929       .  S
C1391      C1392   1.409       .  A
C1391     Br1406   1.929       .  S
C1392      C1395   1.486       .  S
C1392      C1393   1.409       .  A
C1393      C1394   1.407       .  A
C1393     Br1401   1.930   1_545  S
C1394     Br1405   1.932   1_545  S
C1395      C1396   1.408       .  A
C1395      C1400   1.410       .  A
C1396      C1397   1.408       .  A
C1396     Br1407   1.930       .  S
C1397      C1398   1.411       .  A
C1397     Br1403   1.929       .  S
C1398      C1399   1.411       .  A
C1399      C1400   1.408       .  A
C1399     Br1408   1.930       .  S
C1400     Br1404   1.930       .  S
C1409      C1410   1.413       .  A
C1409      C1414   1.412       .  A
C1410      C1411   1.417       .  A
C1410     Br1422   1.927       .  S
C1411      C1412   1.412       .  A
C1411     Br1426   1.927       .  S
C1412      C1415   1.510       .  S
C1412      C1413   1.415       .  A
C1413      C1414   1.416       .  A
C1413     Br1421   1.927       .  S
C1414     Br1425   1.929       .  S
C1415      C1416   1.410       .  A
C1415      C1420   1.402       .  A
C1416      C1417   1.425       .  A
C1416     Br1427   1.930       .  S
C1417      C1418   1.427       .  A
C1417     Br1423   1.916       .  S
C1418      C1419   1.428       .  A
C1419      C1420   1.413       .  A
C1419     Br1428   1.914       .  S
C1420     Br1424   1.934       .  S
C1429      C1430   1.410       .  A
C1429      C1434   1.413       .  A
C1430      C1431   1.414       .  A
C1430     Br1442   1.927       .  S
C1431      C1432   1.413       .  A
C1431     Br1446   1.929       .  S
C1432      C1435   1.498       .  S
C1432      C1433   1.411       .  A
C1433      C1434   1.412       .  A
C1433     Br1441   1.930       .  S
C1434     Br1445   1.930       .  S
C1435      C1436   1.410       .  A
C1435      C1440   1.399       .  A
C1436      C1437   1.423       .  A
C1436     Br1447   1.929       .  S
C1437      C1438   1.424       .  A
C1437     Br1443   1.914       .  S
C1438      C1439   1.422       .  A
C1439      C1440   1.407       .  A
C1439     Br1448   1.899       .  S
C1440     Br1444   1.940       .  S
C1449      C1450   1.410       .  A
C1449      C1454   1.410       .  A
C1450      C1451   1.405       .  A
C1450     Br1462   1.929       .  S
C1451      C1452   1.407       .  A
C1451     Br1466   1.928       .  S
C1452      C1455   1.479       .  S
C1452      C1453   1.409       .  A
C1453      C1454   1.405       .  A
C1453     Br1461   1.931       .  S
C1454     Br1465   1.931       .  S
C1455      C1456   1.407       .  A
C1455      C1460   1.407       .  A
C1456      C1457   1.406       .  A
C1456     Br1467   1.931       .  S
C1457      C1458   1.414       .  A
C1457     Br1463   1.931       .  S
C1458      C1459   1.411       .  A
C1459      C1460   1.405       .  A
C1459     Br1468   1.930       .  S
C1460     Br1464   1.930       .  S
C1469      C1470   1.429       .  A
C1469      C1474   1.429       .  A
C1470      C1471   1.409       .  A
C1470     Br1482   1.906       .  S
C1471      C1472   1.398       .  A
C1471     Br1486   1.941       .  S
C1472      C1475   1.503       .  S
C1472      C1473   1.409       .  A
C1473      C1474   1.425       .  A
C1473     Br1481   1.929       .  S
C1474     Br1485   1.915       .  S
C1475      C1476   1.413       .  A
C1475      C1480   1.411       .  A
C1476      C1477   1.416       .  A
C1476     Br1487   1.929       .  S
C1477      C1478   1.412       .  A
C1477     Br1483   1.926       .  S
C1478      C1479   1.413       .  A
C1479      C1480   1.412       .  A
C1479     Br1488   1.931       .  S
C1480     Br1484   1.924       .  S
C1489      C1490   1.412       .  A
C1489      C1494   1.416       .  A
C1490      C1491   1.418       .  A
C1490     Br1502   1.926       .  S
C1491      C1492   1.413       .  A
C1491     Br1506   1.928       .  S
C1492      C1495   1.505       .  S
C1492      C1493   1.414       .  A
C1493      C1494   1.411       .  A
C1493     Br1501   1.933       .  S
C1494     Br1505   1.935       .  S
C1495      C1496   1.409       .  A
C1495      C1500   1.404       .  A
C1496      C1497   1.420       .  A
C1496     Br1507   1.931       .  S
C1497      C1498   1.424       .  A
C1497     Br1503   1.919       .  S
C1498      C1499   1.426       .  A
C1499      C1500   1.412       .  A
C1499     Br1508   1.918       .  S
C1500     Br1504   1.934       .  S
C1509      C1510   1.431       .  A
C1509      C1514   1.434       .  A
C1510      C1511   1.409       .  A
C1510     Br1522   1.900       .  S
C1511      C1512   1.396       .  A
C1511     Br1526   1.944       .  S
C1512      C1515   1.500       .  S
C1512      C1513   1.407       .  A
C1513      C1514   1.425       .  A
C1513     Br1521   1.932       .  S
C1514     Br1525   1.915       .  S
C1515      C1516   1.410       .  A
C1515      C1520   1.414       .  A
C1516      C1517   1.412       .  A
C1516     Br1527   1.930       .  S
C1517      C1518   1.415       .  A
C1517     Br1523   1.931       .  S
C1518      C1519   1.409       .  A
C1519      C1520   1.412       .  A
C1519     Br1528   1.929       .  S
C1520     Br1524   1.925       .  S
C1529      C1530   1.408       .  A
C1529      C1534   1.409       .  A
C1530      C1531   1.405       .  A
C1530     Br1542   1.928       .  S
C1531      C1532   1.408       .  A
C1531     Br1546   1.930       .  S
C1532      C1535   1.478       .  S
C1532      C1533   1.409       .  A
C1533      C1534   1.405       .  A
C1533     Br1541   1.929       .  S
C1534     Br1545   1.930       .  S
C1535      C1536   1.409       .  A
C1535      C1540   1.408       .  A
C1536      C1537   1.406       .  A
C1536     Br1547   1.930       .  S
C1537      C1538   1.407       .  A
C1537     Br1543   1.928       .  S
C1538      C1539   1.409       .  A
C1539      C1540   1.405       .  A
C1539     Br1548   1.930       .  S
C1540     Br1544   1.929       .  S
C1549      C1550   1.415       .  A
C1549      C1554   1.413       .  A
C1550      C1551   1.418       .  A
C1550     Br1562   1.929       .  S
C1551      C1552   1.413       .  A
C1551     Br1566   1.928       .  S
C1552      C1555   1.511       .  S
C1552      C1553   1.414       .  A
C1553      C1554   1.419       .  A
C1553     Br1561   1.929       .  S
C1554     Br1565   1.926       .  S
C1555      C1556   1.415       .  A
C1555      C1560   1.403       .  A
C1556      C1557   1.426       .  A
C1556     Br1567   1.926       .  S
C1557      C1558   1.419       .  A
C1557     Br1563   1.918       .  S
C1558      C1559   1.422       .  A
C1559      C1560   1.412       .  A
C1559     Br1568   1.906       .  S
C1560     Br1564   1.936       .  S
C1569      C1570   1.421       .  A
C1569      C1574   1.415       .  A
C1570      C1571   1.411       .  A
C1570     Br1582   1.935       .  S
C1571      C1572   1.410       .  A
C1571     Br1586   1.934       .  S
C1572      C1575   1.498       .  S
C1572      C1573   1.411       .  A
C1573      C1574   1.412       .  A
C1573     Br1581   1.930       .  S
C1574     Br1585   1.929       .  S
C1575      C1576   1.400       .  A
C1575      C1580   1.398       .  A
C1576      C1577   1.420       .  A
C1576     Br1587   1.936       .  S
C1577      C1578   1.449       .  A
C1577     Br1583   1.926       .  S
C1578      C1579   1.439       .  A
C1579      C1580   1.411       .  A
C1579     Br1588   1.920       .  S
C1580     Br1584   1.941       .  S
C1589      C1590   1.408       .  A
C1589      C1594   1.410       .  A
C1590      C1591   1.405       .  A
C1590     Br1602   1.930       .  S
C1591      C1592   1.409       .  A
C1591     Br1606   1.930       .  S
C1592      C1595   1.484       .  S
C1592      C1593   1.409       .  A
C1593      C1594   1.409       .  A
C1593     Br1601   1.927       .  S
C1594     Br1605   1.930       .  S
C1595      C1596   1.407       .  A
C1595      C1600   1.407       .  A
C1596      C1597   1.408       .  A
C1596     Br1607   1.930       .  S
C1597      C1598   1.414       .  A
C1597     Br1603   1.931       .  S
C1598      C1599   1.417       .  A
C1599      C1600   1.410       .  A
C1599     Br1608   1.929       .  S
C1600     Br1604   1.932       .  S
C1609      C1610   1.412       .  A
C1609      C1614   1.412       .  A
C1610      C1611   1.414       .  A
C1610     Br1622   1.930       .  S
C1611      C1612   1.413       .  A
C1611     Br1626   1.930       .  S
C1612      C1615   1.507       .  S
C1612      C1613   1.413       .  A
C1613      C1614   1.417       .  A
C1613     Br1621   1.927       .  S
C1614     Br1625   1.927       .  S
C1615      C1616   1.407       .  A
C1615      C1620   1.402       .  A
C1616      C1617   1.420       .  A
C1616     Br1627   1.931       .  S
C1617      C1618   1.427       .  A
C1617     Br1623   1.916       .  S
C1618      C1619   1.431       .  A
C1619      C1620   1.416       .  A
C1619     Br1628   1.913       .  S
C1620     Br1624   1.935       .  S
C1629      C1630   1.438       .  A
C1629      C1634   1.445       .  A
C1630      C1631   1.412       .  A
C1630     Br1642   1.904       .  S
C1631      C1632   1.394       .  A
C1631     Br1646   1.942       .  S
C1632      C1635   1.490       .  S
C1632      C1633   1.398       .  A
C1633      C1634   1.417       .  A
C1633     Br1641   1.940       .  S
C1634     Br1645   1.921       .  S
C1635      C1636   1.409       .  A
C1635      C1640   1.410       .  A
C1636      C1637   1.407       .  A
C1636     Br1647   1.931       .  S
C1637      C1638   1.413       .  A
C1637     Br1643   1.932       .  S
C1638      C1639   1.410       .  A
C1639      C1640   1.410       .  A
C1639     Br1648   1.928       .  S
C1640     Br1644   1.929       .  S
C1649      C1650   1.412       .  A
C1649      C1654   1.413       .  A
C1650      C1651   1.404       .  A
C1650     Br1662   1.932       .  S
C1651      C1652   1.408       .  A
C1651     Br1666   1.932       .  S
C1652      C1655   1.477       .  S
C1652      C1653   1.406       .  A
C1653      C1654   1.405       .  A
C1653     Br1661   1.929       .  S
C1654     Br1665   1.931       .  S
C1655      C1656   1.408       .  A
C1655      C1660   1.408       .  A
C1656      C1657   1.405       .  A
C1656     Br1667   1.930       .  S
C1657      C1658   1.410       .  A
C1657     Br1663   1.929       .  S
C1658      C1659   1.410       .  A
C1659      C1660   1.404       .  A
C1659     Br1668   1.931       .  S
C1660     Br1664   1.930       .  S
C1669      C1670   1.431       .  A
C1669      C1674   1.432       .  A
C1670      C1671   1.408       .  A
C1670     Br1682   1.900       .  S
C1671      C1672   1.395       .  A
C1671     Br1686   1.943       .  S
C1672      C1675   1.501       .  S
C1672      C1673   1.407       .  A
C1673      C1674   1.426       .  A
C1673     Br1681   1.930       .  S
C1674     Br1685   1.912       .  S
C1675      C1676   1.409       .  A
C1675      C1680   1.413       .  A
C1676      C1677   1.412       .  A
C1676     Br1687   1.933       .  S
C1677      C1678   1.417       .  A
C1677     Br1683   1.931       .  S
C1678      C1679   1.415       .  A
C1679      C1680   1.418       .  A
C1679     Br1688   1.927       .  S
C1680     Br1684   1.928       .  S
C1689      C1690   1.412       .  A
C1689      C1694   1.415       .  A
C1690      C1691   1.413       .  A
C1690     Br1702   1.928       .  S
C1691      C1692   1.412       .  A
C1691     Br1706   1.928       .  S
C1692      C1695   1.492       .  S
C1692      C1693   1.407       .  A
C1693      C1694   1.407       .  A
C1693     Br1701   1.931       .  S
C1694     Br1705   1.932       .  S
C1695      C1696   1.396       .  A
C1695      C1700   1.404       .  A
C1696      C1697   1.408       .  A
C1696     Br1707   1.942       .  S
C1697      C1698   1.435       .  A
C1697     Br1703   1.917       .  S
C1698      C1699   1.433       .  A
C1699      C1700   1.419       .  A
C1699     Br1708   1.919       .  S
C1700     Br1704   1.933       .  S
C1709      C1710   1.414       .  A
C1709      C1714   1.413       .  A
C1710      C1711   1.407       .  A
C1710     Br1722   1.931       .  S
C1711      C1712   1.408       .  A
C1711     Br1726   1.931       .  S
C1712      C1715   1.484       .  S
C1712      C1713   1.408       .  A
C1713      C1714   1.408       .  A
C1713     Br1721   1.930       .  S
C1714     Br1725   1.931       .  S
C1715      C1716   1.410       .  A
C1715      C1720   1.409       .  A
C1716      C1717   1.407       .  A
C1716     Br1727   1.931       .  S
C1717      C1718   1.408       .  A
C1717     Br1723   1.929       .  S
C1718      C1719   1.408       .  A
C1719      C1720   1.408       .  A
C1719     Br1728   1.928       .  S
C1720     Br1724   1.928       .  S
C1729      C1730   1.416       .  A
C1729      C1734   1.414       .  A
C1730      C1731   1.413       .  A
C1730     Br1742   1.930       .  S
C1731      C1732   1.412       .  A
C1731     Br1746   1.931       .  S
C1732      C1735   1.506       .  S
C1732      C1733   1.413       .  A
C1733      C1734   1.419       .  A
C1733     Br1741   1.927       .  S
C1734     Br1745   1.927       .  S
C1735      C1736   1.405       .  A
C1735      C1740   1.414       .  A
C1736      C1737   1.410       .  A
C1736     Br1747   1.937       .  S
C1737      C1738   1.426       .  A
C1737     Br1743   1.928       .  S
C1738      C1739   1.417       .  A
C1739      C1740   1.422       .  A
C1739     Br1748   1.924       .  S
C1740     Br1744   1.926       .  S
C1749      C1750   1.411       .  A
C1749      C1754   1.410       .  A
C1750      C1751   1.408       .  A
C1750     Br1762   1.930       .  S
C1751      C1752   1.410       .  A
C1751     Br1766   1.931       .  S
C1752      C1755   1.490       .  S
C1752      C1753   1.410       .  A
C1753      C1754   1.410       .  A
C1753     Br1761   1.927       .  S
C1754     Br1765   1.928       .  S
C1755      C1756   1.395       .  A
C1755      C1760   1.402       .  A
C1756      C1757   1.408       .  A
C1756     Br1767   1.944       .  S
C1757      C1758   1.436       .  A
C1757     Br1763   1.913       .  S
C1758      C1759   1.432       .  A
C1759      C1760   1.419       .  A
C1759     Br1768   1.909       .  S
C1760     Br1764   1.934       .  S
C1769      C1770   1.409       .  A
C1769      C1774   1.411       .  A
C1770      C1771   1.405       .  A
C1770     Br1782   1.930   1_545  S
C1771      C1772   1.409       .  A
C1771     Br1786   1.931   1_545  S
C1772      C1775   1.479       .  S
C1772      C1773   1.407       .  A
C1773      C1774   1.406       .  A
C1773     Br1781   1.929       .  S
C1774     Br1785   1.929       .  S
C1775      C1776   1.407       .  A
C1775      C1780   1.408       .  A
C1776      C1777   1.405       .  A
C1776     Br1787   1.930       .  S
C1777      C1778   1.412       .  A
C1777     Br1783   1.931       .  S
C1778      C1779   1.410       .  A
C1779      C1780   1.406       .  A
C1779     Br1788   1.930       .  S
C1780     Br1784   1.930       .  S
C1789      C1790   1.415       .  A
C1789      C1794   1.413       .  A
C1790      C1791   1.414       .  A
C1790     Br1802   1.931       .  S
C1791      C1792   1.411       .  A
C1791     Br1806   1.926       .  S
C1792      C1795   1.508       .  S
C1792      C1793   1.414       .  A
C1793      C1794   1.418       .  A
C1793     Br1801   1.929       .  S
C1794     Br1805   1.926       .  S
C1795      C1796   1.402       .  A
C1795      C1800   1.403       .  A
C1796      C1797   1.419       .  A
C1796     Br1807   1.933       .  S
C1797      C1798   1.433       .  A
C1797     Br1803   1.909       .  S
C1798      C1799   1.441       .  A
C1799      C1800   1.422       .  A
C1799     Br1808   1.913       .  S
C1800     Br1804   1.938       .  S
C1809      C1810   1.413       .  A
C1809      C1814   1.414       .  A
C1810      C1811   1.416       .  A
C1810     Br1822   1.927       .  S
C1811      C1812   1.413       .  A
C1811     Br1826   1.928       .  S
C1812      C1815   1.500       .  S
C1812      C1813   1.412       .  A
C1813      C1814   1.411       .  A
C1813     Br1821   1.932       .  S
C1814     Br1825   1.932       .  S
C1815      C1816   1.408       .  A
C1815      C1820   1.394       .  A
C1816      C1817   1.426       .  A
C1816     Br1827   1.930       .  S
C1817      C1818   1.433       .  A
C1817     Br1823   1.918       .  S
C1818      C1819   1.433       .  A
C1819      C1820   1.407       .  A
C1819     Br1828   1.901       .  S
C1820     Br1824   1.946       .  S
C1829      C1830   1.407       .  A
C1829      C1834   1.410       .  A
C1830      C1831   1.406       .  A
C1830     Br1842   1.929       .  S
C1831      C1832   1.409       .  A
C1831     Br1846   1.929       .  S
C1832      C1835   1.479       .  S
C1832      C1833   1.408       .  A
C1833      C1834   1.404       .  A
C1833     Br1841   1.930       .  S
C1834     Br1845   1.931       .  S
C1835      C1836   1.407       .  A
C1835      C1840   1.407       .  A
C1836      C1837   1.406       .  A
C1836     Br1847   1.930       .  S
C1837      C1838   1.412       .  A
C1837     Br1843   1.930       .  S
C1838      C1839   1.413       .  A
C1839      C1840   1.406       .  A
C1839     Br1848   1.931       .  S
C1840     Br1844   1.931       .  S
C1849      C1850   1.414       .  A
C1849      C1854   1.415       .  A
C1850      C1851   1.417       .  A
C1850     Br1862   1.927       .  S
C1851      C1852   1.412       .  A
C1851     Br1866   1.927       .  S
C1852      C1855   1.502       .  S
C1852      C1853   1.411       .  A
C1853      C1854   1.411       .  A
C1853     Br1861   1.933       .  S
C1854     Br1865   1.931       .  S
C1855      C1856   1.393       .  A
C1855      C1860   1.400       .  A
C1856      C1857   1.414       .  A
C1856     Br1867   1.940       .  S
C1857      C1858   1.445       .  A
C1857     Br1863   1.915       .  S
C1858      C1859   1.446       .  A
C1859      C1860   1.425       .  A
C1859     Br1868   1.910       .  S
C1860     Br1864   1.938       .  S
C1869      C1870   1.418       .  A
C1869      C1874   1.414       .  A
C1870      C1871   1.413       .  A
C1870     Br1882   1.931       .  S
C1871      C1872   1.409       .  A
C1871     Br1886   1.931       .  S
C1872      C1875   1.501       .  S
C1872      C1873   1.413       .  A
C1873      C1874   1.415       .  A
C1873     Br1881   1.928       .  S
C1874     Br1885   1.929       .  S
C1875      C1876   1.407       .  A
C1875      C1880   1.397       .  A
C1876      C1877   1.424       .  A
C1876     Br1887   1.930       .  S
C1877      C1878   1.429       .  A
C1877     Br1883   1.910       .  S
C1878      C1879   1.435       .  A
C1879      C1880   1.411       .  A
C1879     Br1888   1.909       .  S
C1880     Br1884   1.944       .  S
C1889      C1890   1.409       .  A
C1889      C1894   1.408       .  A
C1890      C1891   1.406       .  A
C1890     Br1902   1.929       .  S
C1891      C1892   1.408       .  A
C1891     Br1906   1.928       .  S
C1892      C1895   1.482       .  S
C1892      C1893   1.409       .  A
C1893      C1894   1.406       .  A
C1893     Br1901   1.929       .  S
C1894     Br1905   1.930       .  S
C1895      C1896   1.406       .  A
C1895      C1900   1.408       .  A
C1896      C1897   1.408       .  A
C1896     Br1907   1.931       .  S
C1897      C1898   1.417       .  A
C1897     Br1903   1.931       .  S
C1898      C1899   1.412       .  A
C1899      C1900   1.406       .  A
C1899     Br1908   1.931       .  S
C1900     Br1904   1.930       .  S
C1909      C1910   1.414       .  A
C1909      C1914   1.410       .  A
C1910      C1911   1.413       .  A
C1910     Br1922   1.929       .  S
C1911      C1912   1.411       .  A
C1911     Br1926   1.930       .  S
C1912      C1915   1.501       .  S
C1912      C1913   1.414       .  A
C1913      C1914   1.414       .  A
C1913     Br1921   1.920       .  S
C1914     Br1925   1.930       .  S
C1915      C1916   1.401       .  A
C1915      C1920   1.413       .  A
C1916      C1917   1.407       .  A
C1916     Br1927   1.941       .  S
C1917      C1918   1.427       .  A
C1917     Br1923   1.911       .  S
C1918      C1919   1.421       .  A
C1919      C1920   1.424       .  A
C1919     Br1928   1.917       .  S
C1920     Br1924   1.925       .  S
C1929      C1930   1.411       .  A
C1929      C1934   1.412       .  A
C1930      C1931   1.408       .  A
C1930     Br1942   1.931       .  S
C1931      C1932   1.411       .  A
C1931     Br1946   1.931       .  S
C1932      C1935   1.499       .  S
C1932      C1933   1.413       .  A
C1933      C1934   1.418       .  A
C1933     Br1941   1.925       .  S
C1934     Br1945   1.926       .  S
C1935      C1936   1.411       .  A
C1935      C1940   1.402       .  A
C1936      C1937   1.423       .  A
C1936     Br1947   1.930       .  S
C1937      C1938   1.425       .  A
C1937     Br1943   1.920       .  S
C1938      C1939   1.416       .  A
C1939      C1940   1.405       .  A
C1939     Br1948   1.914       .  S
C1940     Br1944   1.930       .  S
C1949      C1950   1.414       .  A
C1949      C1954   1.417       .  A
C1950      C1951   1.407       .  A
C1950     Br1962   1.931       .  S
C1951      C1952   1.407       .  A
C1951     Br1966   1.932       .  S
C1952      C1955   1.481       .  S
C1952      C1953   1.405       .  A
C1953      C1954   1.408       .  A
C1953     Br1961   1.931       .  S
C1954     Br1965   1.931       .  S
C1955      C1956   1.407       .  A
C1955      C1960   1.409       .  A
C1956      C1957   1.406       .  A
C1956     Br1967   1.928       .  S
C1957      C1958   1.412       .  A
C1957     Br1963   1.931       .  S
C1958      C1959   1.409       .  A
C1959      C1960   1.405       .  A
C1959     Br1968   1.931   1_545  S
C1960     Br1964   1.930   1_545  S
C1969      C1970   1.408       .  A
C1969      C1974   1.409       .  A
C1970      C1971   1.409       .  A
C1970     Br1982   1.930       .  S
C1971      C1972   1.412       .  A
C1971     Br1986   1.923       .  S
C1972      C1975   1.493       .  S
C1972      C1973   1.411       .  A
C1973      C1974   1.410       .  A
C1973     Br1981   1.930       .  S
C1974     Br1985   1.928       .  S
C1975      C1976   1.403       .  A
C1975      C1980   1.397       .  A
C1976      C1977   1.419       .  A
C1976     Br1987   1.934       .  S
C1977      C1978   1.430       .  A
C1977     Br1983   1.906       .  S
C1978      C1979   1.433       .  A
C1979      C1980   1.410       .  A
C1979     Br1988   1.911       .  S
C1980     Br1984   1.941       .  S
C1989      C1990   1.416       .  A
C1989      C1994   1.421       .  A
C1990      C1991   1.415       .  A
C1990     Br2002   1.927       .  S
C1991      C1992   1.412       .  A
C1991     Br2006   1.931       .  S
C1992      C1995   1.498       .  S
C1992      C1993   1.408       .  A
C1993      C1994   1.410       .  A
C1993     Br2001   1.933       .  S
C1994     Br2005   1.933       .  S
C1995      C1996   1.398       .  A
C1995      C2000   1.399       .  A
C1996      C1997   1.412       .  A
C1996     Br2007   1.933       .  S
C1997      C1998   1.441       .  A
C1997     Br2003   1.922       .  S
C1998      C1999   1.452       .  A
C1999      C2000   1.418       .  A
C1999     Br2008   1.929       .  S
C2000     Br2004   1.943       .  S
C2009      C2010   1.410       .  A
C2009      C2014   1.413       .  A
C2010      C2011   1.407       .  A
C2010     Br2022   1.929       .  S
C2011      C2012   1.408       .  A
C2011     Br2026   1.929       .  S
C2012      C2015   1.480       .  S
C2012      C2013   1.407       .  A
C2013      C2014   1.405       .  A
C2013     Br2021   1.931       .  S
C2014     Br2025   1.931       .  S
C2015      C2016   1.409   1_565  A
C2015      C2020   1.407       .  A
C2016      C2017   1.406       .  A
C2016     Br2027   1.930       .  S
C2017      C2018   1.410   1_545  A
C2017     Br2023   1.931       .  S
C2018      C2019   1.409       .  A
C2019      C2020   1.404       .  A
C2019     Br2028   1.930       .  S
C2020     Br2024   1.928       .  S
C2029      C2030   1.412       .  A
C2029      C2034   1.411       .  A
C2030      C2031   1.412       .  A
C2030     Br2042   1.930       .  S
C2031      C2032   1.412       .  A
C2031     Br2046   1.929       .  S
C2032      C2035   1.504       .  S
C2032      C2033   1.414       .  A
C2033      C2034   1.415       .  A
C2033     Br2041   1.925       .  S
C2034     Br2045   1.928       .  S
C2035      C2036   1.406       .  A
C2035      C2040   1.395       .  A
C2036      C2037   1.427       .  A
C2036     Br2047   1.933       .  S
C2037      C2038   1.436       .  A
C2037     Br2043   1.915       .  S
C2038      C2039   1.437       .  A
C2039      C2040   1.412       .  A
C2039     Br2048   1.905       .  S
C2040     Br2044   1.942       .  S
C2049      C2050   1.418       .  A
C2049      C2054   1.414       .  A
C2050      C2051   1.409       .  A
C2050     Br2062   1.933       .  S
C2051      C2052   1.408       .  A
C2051     Br2066   1.932       .  S
C2052      C2055   1.496       .  S
C2052      C2053   1.411       .  A
C2053      C2054   1.414       .  A
C2053     Br2061   1.928       .  S
C2054     Br2065   1.928       .  S
C2055      C2056   1.396       .  A
C2055      C2060   1.402       .  A
C2056      C2057   1.415       .  A
C2056     Br2067   1.941       .  S
C2057      C2058   1.444       .  A
C2057     Br2063   1.933       .  S
C2058      C2059   1.440       .  A
C2059      C2060   1.418       .  A
C2059     Br2068   1.932       .  S
C2060     Br2064   1.934       .  S
C2069      C2070   1.411       .  A
C2069      C2074   1.410       .  A
C2070      C2071   1.408       .  A
C2070     Br2082   1.930       .  S
C2071      C2072   1.409       .  A
C2071     Br2086   1.930       .  S
C2072      C2075   1.480       .  S
C2072      C2073   1.408       .  A
C2073      C2074   1.404       .  A
C2073     Br2081   1.931       .  S
C2074     Br2085   1.931       .  S
C2075      C2076   1.409       .  A
C2075      C2080   1.410       .  A
C2076      C2077   1.407       .  A
C2076     Br2087   1.929       .  S
C2077      C2078   1.408       .  A
C2077     Br2083   1.928       .  S
C2078      C2079   1.408       .  A
C2079      C2080   1.404       .  A
C2079     Br2088   1.930       .  S
C2080     Br2084   1.931       .  S
C2089      C2090   1.443       .  A
C2089      C2094   1.435       .  A
C2090      C2091   1.418       .  A
C2090     Br2102   1.907       .  S
C2091      C2092   1.397       .  A
C2091     Br2106   1.942       .  S
C2092      C2095   1.492       .  S
C2092      C2093   1.394       .  A
C2093      C2094   1.414       .  A
C2093     Br2101   1.940       .  S
C2094     Br2105   1.890       .  S
C2095      C2096   1.410       .  A
C2095      C2100   1.410       .  A
C2096      C2097   1.409       .  A
C2096     Br2107   1.928       .  S
C2097      C2098   1.411       .  A
C2097     Br2103   1.929       .  S
C2098      C2099   1.411       .  A
C2099      C2100   1.411       .  A
C2099     Br2108   1.927       .  S
C2100     Br2104   1.930       .  S
C2109      C2110   1.410       .  A
C2109      C2114   1.413       .  A
C2110      C2111   1.415       .  A
C2110     Br2122   1.929       .  S
C2111      C2112   1.414       .  A
C2111     Br2126   1.923       .  S
C2112      C2115   1.503       .  S
C2112      C2113   1.413       .  A
C2113      C2114   1.414       .  A
C2113     Br2121   1.931       .  S
C2114     Br2125   1.929       .  S
C2115      C2116   1.400       .  A
C2115      C2120   1.412       .  A
C2116      C2117   1.409       .  A
C2116     Br2127   1.941       .  S
C2117      C2118   1.428       .  A
C2117     Br2123   1.910       .  S
C2118      C2119   1.425       .  A
C2119      C2120   1.425       .  A
C2119     Br2128   1.918       .  S
C2120     Br2124   1.927       .  S
C2129      C2130   1.410       .  A
C2129      C2134   1.410       .  A
C2130      C2131   1.405       .  A
C2130     Br2142   1.931       .  S
C2131      C2132   1.409   1_556  A
C2131     Br2146   1.931   1_556  S
C2132      C2135   1.481       .  S
C2132      C2133   1.408   1_554  A
C2133      C2134   1.407       .  A
C2133     Br2141   1.928       .  S
C2134     Br2145   1.929       .  S
C2135      C2136   1.409       .  A
C2135      C2140   1.407       .  A
C2136      C2137   1.407       .  A
C2136     Br2147   1.931       .  S
C2137      C2138   1.412       .  A
C2137     Br2143   1.929       .  S
C2138      C2139   1.411       .  A
C2139      C2140   1.405       .  A
C2139     Br2148   1.930       .  S
C2140     Br2144   1.929       .  S
C2149      C2150   1.444       .  A
C2149      C2154   1.442       .  A
C2150      C2151   1.416       .  A
C2150     Br2162   1.927       .  S
C2151      C2152   1.398       .  A
C2151     Br2166   1.942       .  S
C2152      C2155   1.500       .  S
C2152      C2153   1.401       .  A
C2153      C2154   1.419       .  A
C2153     Br2161   1.935       .  S
C2154     Br2165   1.931       .  S
C2155      C2156   1.409       .  A
C2155      C2160   1.413       .  A
C2156      C2157   1.409       .  A
C2156     Br2167   1.932       .  S
C2157      C2158   1.416       .  A
C2157     Br2163   1.932       .  S
C2158      C2159   1.414       .  A
C2159      C2160   1.416       .  A
C2159     Br2168   1.927       .  S
C2160     Br2164   1.929       .  S
C2169      C2170   1.411       .  A
C2169      C2174   1.417       .  A
C2170      C2171   1.416       .  A
C2170     Br2182   1.929       .  S
C2171      C2172   1.417       .  A
C2171     Br2186   1.926       .  S
C2172      C2175   1.505       .  S
C2172      C2173   1.410       .  A
C2173      C2174   1.413       .  A
C2173     Br2181   1.931       .  S
C2174     Br2185   1.930       .  S
C2175      C2176   1.409       .  A
C2175      C2180   1.397       .  A
C2176      C2177   1.426       .  A
C2176     Br2187   1.931       .  S
C2177      C2178   1.432       .  A
C2177     Br2183   1.914       .  S
C2178      C2179   1.433       .  A
C2179      C2180   1.411       .  A
C2179     Br2188   1.902       .  S
C2180     Br2184   1.943       .  S
C2189      C2190   1.408       .  A
C2189      C2194   1.410       .  A
C2190      C2191   1.407       .  A
C2190     Br2202   1.930       .  S
C2191      C2192   1.411       .  A
C2191     Br2206   1.929       .  S
C2192      C2195   1.484       .  S
C2192      C2193   1.409       .  A
C2193      C2194   1.407       .  A
C2193     Br2201   1.929       .  S
C2194     Br2205   1.930       .  S
C2195      C2196   1.410   1_455  A
C2195      C2200   1.409   1_455  A
C2196      C2197   1.408       .  A
C2196     Br2207   1.930   1_655  S
C2197      C2198   1.410       .  A
C2197     Br2203   1.928       .  S
C2198      C2199   1.410       .  A
C2199      C2200   1.407       .  A
C2199     Br2208   1.930       .  S
C2200     Br2204   1.929   1_655  S
C2209      C2210   1.415       .  A
C2209      C2214   1.415       .  A
C2210      C2211   1.410       .  A
C2210     Br2222   1.931       .  S
C2211      C2212   1.411       .  A
C2211     Br2226   1.930       .  S
C2212      C2215   1.505       .  S
C2212      C2213   1.416       .  A
C2213      C2214   1.417       .  A
C2213     Br2221   1.930       .  S
C2214     Br2225   1.929       .  S
C2215      C2216   1.400       .  A
C2215      C2220   1.401       .  A
C2216      C2217   1.420       .  A
C2216     Br2227   1.948       .  S
C2217      C2218   1.456       .  A
C2217     Br2223   1.926       .  S
C2218      C2219   1.438       .  A
C2219      C2220   1.415       .  A
C2219     Br2228   1.920       .  S
C2220     Br2224   1.931       .  S
C2229      C2230   1.414       .  A
C2229      C2234   1.416       .  A
C2230      C2231   1.416       .  A
C2230     Br2242   1.928       .  S
C2231      C2232   1.412       .  A
C2231     Br2246   1.927       .  S
C2232      C2235   1.500       .  S
C2232      C2233   1.409       .  A
C2233      C2234   1.412       .  A
C2233     Br2241   1.931       .  S
C2234     Br2245   1.931       .  S
C2235      C2236   1.397       .  A
C2235      C2240   1.405       .  A
C2236      C2237   1.411       .  A
C2236     Br2247   1.941       .  S
C2237      C2238   1.434       .  A
C2237     Br2243   1.912       .  S
C2238      C2239   1.433       .  A
C2239      C2240   1.424       .  A
C2239     Br2248   1.913       .  S
C2240     Br2244   1.932       .  S
C2249      C2250   1.413       .  A
C2249      C2254   1.412       .  A
C2250      C2251   1.406       .  A
C2250     Br2262   1.932       .  S
C2251      C2252   1.408       .  A
C2251     Br2266   1.931       .  S
C2252      C2255   1.482       .  S
C2252      C2253   1.407       .  A
C2253      C2254   1.408       .  A
C2253     Br2261   1.929       .  S
C2254     Br2265   1.929       .  S
C2255      C2256   1.406       .  A
C2255      C2260   1.406       .  A
C2256      C2257   1.407       .  A
C2256     Br2267   1.932       .  S
C2257      C2258   1.417       .  A
C2257     Br2263   1.931       .  S
C2258      C2259   1.417       .  A
C2259      C2260   1.408       .  A
C2259     Br2268   1.931       .  S
C2260     Br2264   1.932       .  S
C2269      C2270   1.410       .  A
C2269      C2274   1.408       .  A
C2270      C2271   1.412       .  A
C2270     Br2282   1.928       .  S
C2271      C2272   1.411       .  A
C2271     Br2286   1.929       .  S
C2272      C2275   1.498       .  S
C2272      C2273   1.412       .  A
C2273      C2274   1.410       .  A
C2273     Br2281   1.924       .  S
C2274     Br2285   1.930       .  S
C2275      C2276   1.405       .  A
C2275      C2280   1.396       .  A
C2276      C2277   1.422       .  A
C2276     Br2287   1.933       .  S
C2277      C2278   1.432       .  A
C2277     Br2283   1.917       .  S
C2278      C2279   1.437       .  A
C2279      C2280   1.412       .  A
C2279     Br2288   1.914       .  S
C2280     Br2284   1.941       .  S
C2289      C2290   1.433       .  A
C2289      C2294   1.433       .  A
C2290      C2291   1.413       .  A
C2290     Br2302   1.901       .  S
C2291      C2292   1.398       .  A
C2291     Br2306   1.942       .  S
C2292      C2295   1.508       .  S
C2292      C2293   1.408       .  A
C2293      C2294   1.427       .  A
C2293     Br2301   1.931       .  S
C2294     Br2305   1.911       .  S
C2295      C2296   1.414       .  A
C2295      C2300   1.414       .  A
C2296      C2297   1.416       .  A
C2296     Br2307   1.928       .  S
C2297      C2298   1.411       .  A
C2297     Br2303   1.926       .  S
C2298      C2299   1.411       .  A
C2299      C2300   1.414       .  A
C2299     Br2308   1.931       .  S
C2300     Br2304   1.924       .  S
C2309      C2310   1.411       .  A
C2309      C2314   1.413       .  A
C2310      C2311   1.405       .  A
C2310     Br2322   1.931       .  S
C2311      C2312   1.408       .  A
C2311     Br2326   1.931       .  S
C2312      C2315   1.481   1_554  S
C2312      C2313   1.408       .  A
C2313      C2314   1.406       .  A
C2313     Br2321   1.931       .  S
C2314     Br2325   1.930       .  S
C2315      C2316   1.410       .  A
C2315      C2320   1.410       .  A
C2316      C2317   1.408       .  A
C2316     Br2327   1.929       .  S
C2317      C2318   1.408       .  A
C2317     Br2323   1.928       .  S
C2318      C2319   1.408       .  A
C2319      C2320   1.403       .  A
C2319     Br2328   1.932       .  S
C2320     Br2324   1.932   1_556  S
C2329      C2330   1.432       .  A
C2329      C2334   1.434       .  A
C2330      C2331   1.423       .  A
C2330     Br2342   1.918       .  S
C2331      C2332   1.406       .  A
C2331     Br2346   1.931       .  S
C2332      C2335   1.495       .  S
C2332      C2333   1.393       .  A
C2333      C2334   1.406       .  A
C2333     Br2341   1.945       .  S
C2334     Br2345   1.905       .  S
C2335      C2336   1.411       .  A
C2335      C2340   1.409       .  A
C2336      C2337   1.413       .  A
C2336     Br2347   1.929       .  S
C2337      C2338   1.413       .  A
C2337     Br2343   1.928       .  S
C2338      C2339   1.417       .  A
C2339      C2340   1.410       .  A
C2339     Br2348   1.932       .  S
C2340     Br2344   1.932       .  S
C2349      C2350   1.426       .  A
C2349      C2354   1.423       .  A
C2350      C2351   1.425       .  A
C2350     Br2362   1.913       .  S
C2351      C2352   1.410       .  A
C2351     Br2366   1.928       .  S
C2352      C2355   1.508       .  S
C2352      C2353   1.401       .  A
C2353      C2354   1.407       .  A
C2353     Br2361   1.930       .  S
C2354     Br2365   1.915       .  S
C2355      C2356   1.411       .  A
C2355      C2360   1.413       .  A
C2356      C2357   1.419       .  A
C2356     Br2367   1.925       .  S
C2357      C2358   1.415       .  A
C2357     Br2363   1.926       .  S
C2358      C2359   1.418       .  A
C2359      C2360   1.415       .  A
C2359     Br2368   1.932       .  S
C2360     Br2364   1.932       .  S
C2369      C2370   1.413       .  A
C2369      C2374   1.409       .  A
C2370      C2371   1.406       .  A
C2370     Br2382   1.931       .  S
C2371      C2372   1.409       .  A
C2371     Br2386   1.932       .  S
C2372      C2375   1.480   1_556  S
C2372      C2373   1.409       .  A
C2373      C2374   1.405       .  A
C2373     Br2381   1.931       .  S
C2374     Br2385   1.930       .  S
C2375      C2376   1.409       .  A
C2375      C2380   1.409       .  A
C2376      C2377   1.403       .  A
C2376     Br2387   1.932       .  S
C2377      C2378   1.411       .  A
C2377     Br2383   1.932       .  S
C2378      C2379   1.411       .  A
C2379      C2380   1.407       .  A
C2379     Br2388   1.930       .  S
C2380     Br2384   1.930       .  S
C2389      C2390   1.412       .  A
C2389      C2394   1.413       .  A
C2390      C2391   1.414       .  A
C2390     Br2402   1.929       .  S
C2391      C2392   1.413       .  A
C2391     Br2406   1.930       .  S
C2392      C2395   1.498       .  S
C2392      C2393   1.409       .  A
C2393      C2394   1.412       .  A
C2393     Br2401   1.930       .  S
C2394     Br2405   1.928       .  S
C2395      C2396   1.404       .  A
C2395      C2400   1.394       .  A
C2396      C2397   1.423       .  A
C2396     Br2407   1.934       .  S
C2397      C2398   1.439       .  A
C2397     Br2403   1.923       .  S
C2398      C2399   1.437       .  A
C2399      C2400   1.410       .  A
C2399     Br2408   1.904       .  S
C2400     Br2404   1.942       .  S
C2409      C2410   1.436       .  A
C2409      C2414   1.433       .  A
C2410      C2411   1.426       .  A
C2410     Br2422   1.919       .  S
C2411      C2412   1.407       .  A
C2411     Br2426   1.932       .  S
C2412      C2415   1.505       .  S
C2412      C2413   1.397       .  A
C2413      C2414   1.411       .  A
C2413     Br2421   1.941       .  S
C2414     Br2425   1.905       .  S
C2415      C2416   1.414       .  A
C2415      C2420   1.410       .  A
C2416      C2417   1.415       .  A
C2416     Br2427   1.925       .  S
C2417      C2418   1.412       .  A
C2417     Br2423   1.929       .  S
C2418      C2419   1.416       .  A
C2419      C2420   1.415       .  A
C2419     Br2428   1.928       .  S
C2420     Br2424   1.930       .  S
C2429      C2430   1.409       .  A
C2429      C2434   1.410       .  A
C2430      C2431   1.405       .  A
C2430     Br2442   1.930       .  S
C2431      C2432   1.409       .  A
C2431     Br2446   1.931       .  S
C2432      C2435   1.482       .  S
C2432      C2433   1.408       .  A
C2433      C2434   1.408       .  A
C2433     Br2441   1.928       .  S
C2434     Br2445   1.929       .  S
C2435      C2436   1.408       .  A
C2435      C2440   1.408       .  A
C2436      C2437   1.408       .  A
C2436     Br2447   1.929       .  S
C2437      C2438   1.412       .  A
C2437     Br2443   1.930       .  S
C2438      C2439   1.409       .  A
C2439      C2440   1.405       .  A
C2439     Br2448   1.930       .  S
C2440     Br2444   1.930       .  S
C2449      C2450   1.414       .  A
C2449      C2454   1.412       .  A
C2450      C2451   1.413       .  A
C2450     Br2462   1.930       .  S
C2451      C2452   1.412       .  A
C2451     Br2466   1.931       .  S
C2452      C2455   1.501       .  S
C2452      C2453   1.412       .  A
C2453      C2454   1.415       .  A
C2453     Br2461   1.925       .  S
C2454     Br2465   1.929       .  S
C2455      C2456   1.413       .  A
C2455      C2460   1.402       .  A
C2456      C2457   1.421       .  A
C2456     Br2467   1.925       .  S
C2457      C2458   1.416       .  A
C2457     Br2463   1.925       .  S
C2458      C2459   1.427       .  A
C2459      C2460   1.408       .  A
C2459     Br2468   1.923       .  S
C2460     Br2464   1.938       .  S
C2469      C2470   1.409       .  A
C2469      C2474   1.410       .  A
C2470      C2471   1.411       .  A
C2470     Br2482   1.927       .  S
C2471      C2472   1.410       .  A
C2471     Br2486   1.926       .  S
C2472      C2475   1.491       .  S
C2472      C2473   1.411       .  A
C2473      C2474   1.407       .  A
C2473     Br2481   1.929       .  S
C2474     Br2485   1.931       .  S
C2475      C2476   1.401       .  A
C2475      C2480   1.407       .  A
C2476      C2477   1.407       .  A
C2476     Br2487   1.934       .  S
C2477      C2478   1.427       .  A
C2477     Br2483   1.924       .  S
C2478      C2479   1.421       .  A
C2479      C2480   1.414       .  A
C2479     Br2488   1.918       .  S
C2480     Br2484   1.931       .  S
C2489      C2490   1.413       .  A
C2489      C2494   1.414       .  A
C2490      C2491   1.405       .  A
C2490     Br2502   1.932       .  S
C2491      C2492   1.407       .  A
C2491     Br2506   1.931       .  S
C2492      C2495   1.479   1_655  S
C2492      C2493   1.407       .  A
C2493      C2494   1.406       .  A
C2493     Br2501   1.931       .  S
C2494     Br2505   1.931       .  S
C2495      C2496   1.409       .  A
C2495      C2500   1.407       .  A
C2496      C2497   1.405       .  A
C2496     Br2507   1.931   1_455  S
C2497      C2498   1.410       .  A
C2497     Br2503   1.930       .  S
C2498      C2499   1.413       .  A
C2499      C2500   1.405       .  A
C2499     Br2508   1.930       .  S
C2500     Br2504   1.931       .  S
C2509      C2510   1.433       .  A
C2509      C2514   1.432       .  A
C2510      C2511   1.411       .  A
C2510     Br2522   1.916       .  S
C2511      C2512   1.399       .  A
C2511     Br2526   1.941       .  S
C2512      C2515   1.498       .  S
C2512      C2513   1.404       .  A
C2513      C2514   1.421       .  A
C2513     Br2521   1.934       .  S
C2514     Br2525   1.908       .  S
C2515      C2516   1.411       .  A
C2515      C2520   1.414       .  A
C2516      C2517   1.410       .  A
C2516     Br2527   1.931       .  S
C2517      C2518   1.412       .  A
C2517     Br2523   1.929       .  S
C2518      C2519   1.408       .  A
C2519      C2520   1.412       .  A
C2519     Br2528   1.929       .  S
C2520     Br2524   1.922       .  S
C2529      C2530   1.410       .  A
C2529      C2534   1.410       .  A
C2530      C2531   1.412       .  A
C2530     Br2542   1.928       .  S
C2531      C2532   1.413       .  A
C2531     Br2546   1.928       .  S
C2532      C2535   1.503       .  S
C2532      C2533   1.413       .  A
C2533      C2534   1.412       .  A
C2533     Br2541   1.924       .  S
C2534     Br2545   1.930       .  S
C2535      C2536   1.404       .  A
C2535      C2540   1.399       .  A
C2536      C2537   1.421       .  A
C2536     Br2547   1.936       .  S
C2537      C2538   1.437       .  A
C2537     Br2543   1.912       .  S
C2538      C2539   1.430       .  A
C2539      C2540   1.418       .  A
C2539     Br2548   1.891       .  S
C2540     Br2544   1.936       .  S
C2549      C2550   1.414       .  A
C2549      C2554   1.413       .  A
C2550      C2551   1.404       .  A
C2550     Br2562   1.932       .  S
C2551      C2552   1.406       .  A
C2551     Br2566   1.931       .  S
C2552      C2555   1.476       .  S
C2552      C2553   1.407       .  A
C2553      C2554   1.404       .  A
C2553     Br2561   1.932       .  S
C2554     Br2565   1.932       .  S
C2555      C2556   1.407       .  A
C2555      C2560   1.407       .  A
C2556      C2557   1.405       .  A
C2556     Br2567   1.930       .  S
C2557      C2558   1.411       .  A
C2557     Br2563   1.931       .  S
C2558      C2559   1.412       .  A
C2559      C2560   1.403       .  A
C2559     Br2568   1.931       .  S
C2560     Br2564   1.932       .  S
C2569      C2570   1.437       .  A
C2569      C2574   1.438       .  A
C2570      C2571   1.427       .  A
C2570     Br2582   1.913       .  S
C2571      C2572   1.405       .  A
C2571     Br2586   1.933       .  S
C2572      C2575   1.507       .  S
C2572      C2573   1.396       .  A
C2573      C2574   1.415       .  A
C2573     Br2581   1.942       .  S
C2574     Br2585   1.907       .  S
C2575      C2576   1.410       .  A
C2575      C2580   1.414       .  A
C2576      C2577   1.414       .  A
C2576     Br2587   1.930       .  S
C2577      C2578   1.419       .  A
C2577     Br2583   1.932       .  S
C2578      C2579   1.414       .  A
C2579      C2580   1.417       .  A
C2579     Br2588   1.928       .  S
C2580     Br2584   1.927       .  S
C2589      C2590   1.413       .  A
C2589      C2594   1.412       .  A
C2590      C2591   1.417       .  A
C2590     Br2602   1.927       .  S
C2591      C2592   1.414       .  A
C2591     Br2606   1.929       .  S
C2592      C2595   1.503       .  S
C2592      C2593   1.411       .  A
C2593      C2594   1.408       .  A
C2593     Br2601   1.929       .  S
C2594     Br2605   1.931       .  S
C2595      C2596   1.398       .  A
C2595      C2600   1.401       .  A
C2596      C2597   1.419       .  A
C2596     Br2607   1.941       .  S
C2597      C2598   1.449       .  A
C2597     Br2603   1.928       .  S
C2598      C2599   1.442       .  A
C2599      C2600   1.417       .  A
C2599     Br2608   1.926       .  S
C2600     Br2604   1.937       .  S
C2609      C2610   1.412       .  A
C2609      C2614   1.413       .  A
C2610      C2611   1.410       .  A
C2610     Br2622   1.929       .  S
C2611      C2612   1.409       .  A
C2611     Br2626   1.929       .  S
C2612      C2615   1.485   1_655  S
C2612      C2613   1.408       .  A
C2613      C2614   1.406       .  A
C2613     Br2621   1.931       .  S
C2614     Br2625   1.931       .  S
C2615      C2616   1.408       .  A
C2615      C2620   1.410       .  A
C2616      C2617   1.407       .  A
C2616     Br2627   1.930       .  S
C2617      C2618   1.412       .  A
C2617     Br2623   1.931       .  S
C2618      C2619   1.411       .  A
C2619      C2620   1.409       .  A
C2619     Br2628   1.930       .  S
C2620     Br2624   1.930   1_455  S
C2629      C2630   1.449       .  A
C2629      C2634   1.443       .  A
C2630      C2631   1.417       .  A
C2630     Br2642   1.921       .  S
C2631      C2632   1.395       .  A
C2631     Br2646   1.943       .  S
C2632      C2635   1.495       .  S
C2632      C2633   1.398       .  A
C2633      C2634   1.417       .  A
C2633     Br2641   1.939       .  S
C2634     Br2645   1.917       .  S
C2635      C2636   1.412       .  A
C2635      C2640   1.408       .  A
C2636      C2637   1.415       .  A
C2636     Br2647   1.927       .  S
C2637      C2638   1.413       .  A
C2637     Br2643   1.927       .  S
C2638      C2639   1.413       .  A
C2639      C2640   1.406       .  A
C2639     Br2648   1.931       .  S
C2640     Br2644   1.931       .  S
C2649      C2650   1.413       .  A
C2649      C2654   1.413       .  A
C2650      C2651   1.418       .  A
C2650     Br2662   1.925       .  S
C2651      C2652   1.412       .  A
C2651     Br2666   1.928       .  S
C2652      C2655   1.508       .  S
C2652      C2653   1.414       .  A
C2653      C2654   1.415       .  A
C2653     Br2661   1.930       .  S
C2654     Br2665   1.930       .  S
C2655      C2656   1.405       .  A
C2655      C2660   1.397       .  A
C2656      C2657   1.423       .  A
C2656     Br2667   1.933       .  S
C2657      C2658   1.438       .  A
C2657     Br2663   1.922       .  S
C2658      C2659   1.443       .  A
C2659      C2660   1.417       .  A
C2659     Br2668   1.913       .  S
C2660     Br2664   1.941       .  S
C2669      C2670   1.413       .  A
C2669      C2674   1.411       .  A
C2670      C2671   1.410       .  A
C2670     Br2682   1.931       .  S
C2671      C2672   1.409       .  A
C2671     Br2686   1.929       .  S
C2672      C2675   1.488   1_556  S
C2672      C2673   1.409       .  A
C2673      C2674   1.408       .  A
C2673     Br2681   1.930       .  S
C2674     Br2685   1.930       .  S
C2675      C2676   1.409       .  A
C2675      C2680   1.408       .  A
C2676      C2677   1.411       .  A
C2676     Br2687   1.929       .  S
C2677      C2678   1.412       .  A
C2677     Br2683   1.929       .  S
C2678      C2679   1.414       .  A
C2679      C2680   1.407       .  A
C2679     Br2688   1.932       .  S
C2680     Br2684   1.930       .  S
C2689      C2690   1.415       .  A
C2689      C2694   1.412       .  A
C2690      C2691   1.410       .  A
C2690     Br2702   1.931       .  S
C2691      C2692   1.410       .  A
C2691     Br2706   1.931       .  S
C2692      C2695   1.498       .  S
C2692      C2693   1.412       .  A
C2693      C2694   1.415       .  A
C2693     Br2701   1.927       .  S
C2694     Br2705   1.928       .  S
C2695      C2696   1.398       .  A
C2695      C2700   1.406       .  A
C2696      C2697   1.408       .  A
C2696     Br2707   1.942       .  S
C2697      C2698   1.429       .  A
C2697     Br2703   1.907       .  S
C2698      C2699   1.429       .  A
C2699      C2700   1.423       .  A
C2699     Br2708   1.911       .  S
C2700     Br2704   1.931       .  S
C2709      C2710   1.418       .  A
C2709      C2714   1.415       .  A
C2710      C2711   1.415       .  A
C2710     Br2722   1.931       .  S
C2711      C2712   1.411       .  A
C2711     Br2726   1.932       .  S
C2712      C2715   1.507       .  S
C2712      C2713   1.415       .  A
C2713      C2714   1.419       .  A
C2713     Br2721   1.928       .  S
C2714     Br2725   1.927       .  S
C2715      C2716   1.404       .  A
C2715      C2720   1.415       .  A
C2716      C2717   1.411       .  A
C2716     Br2727   1.936       .  S
C2717      C2718   1.429       .  A
C2717     Br2723   1.931       .  S
C2718      C2719   1.416       .  A
C2719      C2720   1.422       .  A
C2719     Br2728   1.926       .  S
C2720     Br2724   1.926       .  S
C2729      C2730   1.411       .  A
C2729      C2734   1.412       .  A
C2730      C2731   1.408       .  A
C2730     Br2742   1.931       .  S
C2731      C2732   1.409       .  A
C2731     Br2746   1.929   1_455  S
C2732      C2735   1.482   1_455  S
C2732      C2733   1.408       .  A
C2733      C2734   1.404       .  A
C2733     Br2741   1.931       .  S
C2734     Br2745   1.931       .  S
C2735      C2736   1.408       .  A
C2735      C2740   1.409       .  A
C2736      C2737   1.406       .  A
C2736     Br2747   1.930       .  S
C2737      C2738   1.412       .  A
C2737     Br2743   1.930       .  S
C2738      C2739   1.412       .  A
C2739      C2740   1.407       .  A
C2739     Br2748   1.930       .  S
C2740     Br2744   1.930       .  S
C2749      C2750   1.426       .  A
C2749      C2754   1.424       .  A
C2750      C2751   1.425       .  A
C2750     Br2762   1.915       .  S
C2751      C2752   1.410       .  A
C2751     Br2766   1.929       .  S
C2752      C2755   1.505       .  S
C2752      C2753   1.400       .  A
C2753      C2754   1.410       .  A
C2753     Br2761   1.940       .  S
C2754     Br2765   1.898       .  S
C2755      C2756   1.412       .  A
C2755      C2760   1.413       .  A
C2756      C2757   1.414       .  A
C2756     Br2767   1.929       .  S
C2757      C2758   1.415       .  A
C2757     Br2763   1.930       .  S
C2758      C2759   1.414       .  A
C2759      C2760   1.417       .  A
C2759     Br2768   1.928       .  S
C2760     Br2764   1.929       .  S
C2769      C2770   1.410       .  A
C2769      C2774   1.412       .  A
C2770      C2771   1.416       .  A
C2770     Br2782   1.928       .  S
C2771      C2772   1.417       .  A
C2771     Br2786   1.930       .  S
C2772      C2775   1.510       .  S
C2772      C2773   1.414       .  A
C2773      C2774   1.417       .  A
C2773     Br2781   1.925       .  S
C2774     Br2785   1.929       .  S
C2775      C2776   1.402       .  A
C2775      C2780   1.417       .  A
C2776      C2777   1.406       .  A
C2776     Br2787   1.940       .  S
C2777      C2778   1.424       .  A
C2777     Br2783   1.906       .  S
C2778      C2779   1.424       .  A
C2779      C2780   1.429       .  A
C2779     Br2788   1.921       .  S
C2780     Br2784   1.926       .  S
C2789      C2790   1.413       .  A
C2789      C2794   1.413       .  A
C2790      C2791   1.406       .  A
C2790     Br2802   1.930       .  S
C2791      C2792   1.407       .  A
C2791     Br2806   1.930       .  S
C2792      C2795   1.479       .  S
C2792      C2793   1.408       .  A
C2793      C2794   1.405       .  A
C2793     Br2801   1.932       .  S
C2794     Br2805   1.932       .  S
C2795      C2796   1.405       .  A
C2795      C2800   1.406       .  A
C2796      C2797   1.406       .  A
C2796     Br2807   1.931       .  S
C2797      C2798   1.416       .  A
C2797     Br2803   1.931       .  S
C2798      C2799   1.416       .  A
C2799      C2800   1.406       .  A
C2799     Br2808   1.933       .  S
C2800     Br2804   1.932       .  S
