geometry optimzed in LAMMPS
_audit_creation_date              2020-11-30 
_audit_creation_method            'lammps2cif' 
_symmetry_space_group_name_H-M    'P1' 
_symmetry_Int_Tables_number       1 
_symmetry_cell_setting            triclinic 
loop_ 
_symmetry_equiv_pos_as_xyz 
  x,y,z 
_cell_length_a                    52.82806470552006 
_cell_length_b                    30.528447178880672 
_cell_length_c                    49.42583544134417 
_cell_angle_alpha                 78.55679531612452 
_cell_angle_beta                  92.56849159217391 
_cell_angle_gamma                 90.50243806069608 
loop_ 
_atom_site_label 
_atom_site_type_symbol 
_atom_site_fract_x 
_atom_site_fract_y 
_atom_site_fract_z 
_atom_site_charge 
O1          O  0.34941542  0.34221173  0.32775812    -0.74600
O2          O  0.34178451  0.41716775  0.31621585    -0.53510
C3          C  0.34110084  0.37994588  0.33307168     0.79130
O4          O  0.46680117  0.33507146  0.25888303    -0.59200
O5          O  0.44781388  0.30473301  0.22459555    -0.52230
C6          C  0.46689290  0.30997598  0.24088673     0.71140
O7          O  0.43363541  0.42232958  0.31211291    -0.73760
O8          O  0.39579311  0.40555080  0.32704475    -0.54320
C9          C  0.42016196  0.40465447  0.33177962     0.77150
O10         O  0.38189005  0.24342400  0.27532413    -0.58900
O11         O  0.39754525  0.25685160  0.23239772    -0.52020
C12         C  0.39093521  0.23046151  0.25449943     0.73740
Zr13       Zr  0.36877413  0.31217984  0.28822439     2.54710
O14         O  0.38315351  0.26159884  0.33046386    -0.79470
O15         O  0.32823814  0.27352781  0.28817171    -0.92890
Zr16       Zr  0.43571313  0.37835919  0.27743985     2.64680
O17         O  0.45255383  0.32052139  0.31506071    -0.97840
O18         O  0.47557515  0.41917657  0.27657705    -0.79900
O19         O  0.39474503  0.36980318  0.29659857    -0.83260
O20         O  0.40982179  0.31973567  0.26765688    -2.17970
O21         O  0.34137491  0.34135444  0.18607981    -0.66650
O22         O  0.37969528  0.31001853  0.18234641    -0.51210
C23         C  0.35634095  0.31777956  0.17475696     0.72120
O24         O  0.38898808  0.52866544  0.22817571    -0.59560
O25         O  0.38058613  0.51628362  0.27354842    -0.51530
C26         C  0.38420552  0.54271745  0.25015124     0.73920
O27         O  0.41833511  0.44923645  0.17379777    -0.70950
O28         O  0.41982179  0.37475469  0.17318404    -0.49630
C29         C  0.42220824  0.41671408  0.16202214     0.75310
O30         O  0.30831361  0.42480040  0.23874839    -0.66280
O31         O  0.32796682  0.46874653  0.26540139    -0.53480
C32         C  0.30849287  0.45789581  0.25090244     0.73690
Zr33       Zr  0.34145888  0.38893752  0.22051877     2.77540
O34         O  0.33128287  0.45107511  0.18239971    -0.97030
O35         O  0.30097028  0.35176337  0.21616467    -0.77850
Zr36       Zr  0.40429311  0.46122362  0.21591856     2.70070
O37         O  0.39428151  0.52143567  0.17676246    -0.79100
O38         O  0.44615742  0.49430978  0.21942736    -0.98180
Zr39       Zr  0.37087459  0.43632038  0.28166639     2.21500
Zr40       Zr  0.40469932  0.33560063  0.21836694     2.11130
O41         O  0.38108270  0.40175479  0.20153619    -2.46870
O42         O  0.36363572  0.45024459  0.23317438    -0.78890
O43         O  0.36418936  0.32352856  0.23898652    -0.71090
O44         O  0.41242136  0.44686860  0.26361846    -2.32040
O45         O  0.34590071  0.37700456  0.26931117    -2.28250
O46         O  0.42951873  0.39574936  0.22912982    -0.72850
H47         H  0.41942793  0.29253407  0.27354911     0.79150
H48         H  0.42125833  0.47194522  0.26888768     0.80240
H49         H  0.37807318  0.40662746  0.18177894     0.82460
H50         H  0.32953480  0.37485125  0.27739875     0.80070
H51         H  0.47066912  0.45067960  0.27565357     0.43100
H52         H  0.45799669  0.46867066  0.22352269     0.42080
H53         H  0.37563632  0.52474525  0.17640886     0.41750
H54         H  0.34742979  0.46006281  0.17355520     0.39690
H55         H  0.30165863  0.32528728  0.23143624     0.42820
H56         H  0.31529216  0.29731119  0.28624523     0.37600
H57         H  0.40182642  0.26116426  0.32947227     0.43720
H58         H  0.44844820  0.29154973  0.30984097     0.40130
H59         H  0.32732260  0.47630054  0.19136815     0.45050
H60         H  0.32699068  0.25684460  0.30740433     0.43780
H61         H  0.47119067  0.32308688  0.31392210     0.43910
H62         H  0.44962323  0.50900477  0.20023201     0.44270
O63         O  0.40216832  0.03273539  0.22916563    -0.74600
O64         O  0.39129607  0.01215766  0.27359935    -0.53510
C65         C  0.39739122  0.04163629  0.25276121     0.79130
O66         O  0.34452037  0.85566749  0.17280479    -0.59200
O67         O  0.38240505  0.82281522  0.16970413    -0.52230
C68         C  0.35895733  0.82934013  0.16267686     0.71140
O69         O  0.31845328  0.95743567  0.22064412    -0.73760
O70         O  0.33436353  0.97784852  0.26029698    -0.54320
C71         C  0.31716856  0.97812152  0.24062410     0.77150
O72         O  0.43580663  0.95549969  0.17445428    -0.58900
O73         O  0.43211308  0.88331485  0.16846735    -0.52020
C74         C  0.44049898  0.92433589  0.16183894     0.73740
Zr75       Zr  0.41242864  0.96650182  0.21155783     2.54710
O76         O  0.40168983  0.02595671  0.17217649    -0.79470
O77         O  0.45494103  0.99496786  0.21853562    -0.92890
Zr78       Zr  0.34677473  0.90762497  0.20569199     2.64680
O79         O  0.34118674  0.96327317  0.16312125    -0.97840
O80         O  0.30299188  0.88333515  0.20206314    -0.79900
O81         O  0.37075848  0.96077840  0.22555646    -0.83260
O82         O  0.38831382  0.91425147  0.19074820    -2.17970
O83         O  0.46509582  0.83254810  0.25213991    -0.66650
O84         O  0.44756233  0.80657970  0.21552151    -0.51210
C85         C  0.46585234  0.81003635  0.23303596     0.72120
O86         O  0.34008264  0.84800635  0.31257788    -0.59560
O87         O  0.34906259  0.92135705  0.31166650    -0.51530
C88         C  0.33755118  0.88544063  0.32161899     0.73920
O89         O  0.36815669  0.75311239  0.25623026    -0.70950
O90         O  0.39406961  0.76229101  0.21992478    -0.50590
C91         C  0.37977351  0.73797081  0.23778423     0.75310
O92         O  0.43671855  0.91015288  0.30946225    -0.66280
O93         O  0.39692348  0.90708047  0.32143615    -0.53480
C94         C  0.42076245  0.89812357  0.32769079     0.73690
Zr95       Zr  0.43428703  0.87075761  0.27242937     2.77540
O96         O  0.44314056  0.80009880  0.30433201    -0.97030
O97         O  0.47552448  0.90657919  0.27280833    -0.77850
Zr98       Zr  0.36342925  0.82049022  0.27404143     2.70070
O99         O  0.37374335  0.76320232  0.31474742    -0.79100
O100        O  0.31972045  0.79623381  0.26888552    -0.98180
Zr101      Zr  0.37527605  0.93881815  0.27463843     2.21500
Zr102      Zr  0.40633121  0.84212987  0.20766308     2.11130
O103        O  0.40583608  0.82053237  0.25685132    -2.46870
O104        O  0.39291059  0.86737032  0.29005563    -0.78890
O105        O  0.43192231  0.89530820  0.22456797    -0.71090
O106        O  0.34700812  0.89069168  0.25517996    -2.32040
O107        O  0.41725712  0.94381621  0.25950320    -2.28250
O108        O  0.36412105  0.83751686  0.22441991    -0.72850
H109        H  0.38809645  0.92208693  0.17081966     0.79150
H110        H  0.33004096  0.89199119  0.26146968     0.80240
H111        H  0.41286275  0.79087491  0.26232252     0.82460
H112        H  0.42763102  0.96495960  0.26716007     0.80070
H113        H  0.29668806  0.89889220  0.18350529     0.43100
H114        H  0.31990905  0.77653112  0.25522110     0.42080
H115        H  0.37983834  0.78005801  0.32894308     0.41750
H116        H  0.44872269  0.77859110  0.29324321     0.39690
H117        H  0.47552751  0.92866219  0.25521227     0.42820
H118        H  0.45350455  0.01391391  0.23248087     0.37600
H119        H  0.38294062  0.02573888  0.17062916     0.43720
H120        H  0.34237099  0.94622186  0.14814525     0.40130
H121        H  0.42641425  0.78886148  0.31090534     0.45050
H122        H  0.45835017  0.01600755  0.20111150     0.43780
H123        H  0.32313853  0.97206833  0.16241142     0.43910
H124        H  0.31641718  0.77598901  0.28664849     0.44270
O125        O  0.14608732  0.27440000  0.22534453    -0.74600
O126        O  0.13025428  0.25801080  0.26829615    -0.53510
C127        C  0.13811121  0.28556694  0.24722570     0.79130
O128        O  0.09204197  0.08676274  0.17476178    -0.59200
O129        O  0.13118175  0.05690890  0.17286818    -0.52230
C130        C  0.10774648  0.06244064  0.16457599     0.71140
O131        O  0.06241265  0.18661611  0.22449498    -0.73760
O132        O  0.07897589  0.21520014  0.26109857    -0.54320
C133        C  0.06130964  0.21155749  0.24267514     0.77150
O134        O  0.17737947  0.19692827  0.17066443    -0.58900
O135        O  0.17901716  0.12340978  0.16751024    -0.52020
C136        C  0.18375732  0.16594491  0.15860961     0.73740
Zr137      Zr  0.15530619  0.20663280  0.20898145     2.54710
O138        O  0.13928948  0.26306095  0.17027103    -0.79470
O139        O  0.19796728  0.23706628  0.20975104    -0.92890
Zr140      Zr  0.09232229  0.13581313  0.20975455     2.64680
O141        O  0.07946714  0.18757421  0.16731097    -0.97840
O142        O  0.05187822  0.09668866  0.21278227    -0.79900
O143        O  0.11442110  0.19522647  0.22521047    -0.83260
O144        O  0.13324319  0.14796695  0.19226600    -2.17970
O145        O  0.21734185  0.08709033  0.25113000    -0.66650
O146        O  0.20035376  0.05326141  0.21732578    -0.51210
C147        C  0.21892629  0.06223530  0.23326062     0.72120
O148        O  0.10221481  0.08536174  0.32179325    -0.59560
O149        O  0.08762633  0.15429932  0.30409538    -0.51530
C150        C  0.09110266  0.12246009  0.32451091     0.73920
O151        O  0.12913267  0.98780230  0.26604325    -0.70950
O152        O  0.15047175  0.99931879  0.22566411    -0.49630
C153        C  0.14021801  0.97402625  0.24663992     0.75310
O154        O  0.18315666  0.16565545  0.30699045    -0.66280
O155        O  0.14405932  0.15751068  0.32113021    -0.53480
C156        C  0.16833472  0.15265073  0.32638867     0.73690
Zr157      Zr  0.18447513  0.12230324  0.27153070     2.77540
O158        O  0.19897125  0.05738403  0.30564774    -0.97030
O159        O  0.22212951  0.16942362  0.26973384    -0.77850
Zr160      Zr  0.11810614  0.05724951  0.27932769     2.70070
O161        O  0.13073609  0.00146447  0.32000733    -0.79100
O162        O  0.07577681  0.02525928  0.27850506    -0.98180
Zr163      Zr  0.12039262  0.17949299  0.27424293     2.21500
Zr164      Zr  0.15659705  0.08077117  0.20953788     2.11130
O165        O  0.15937339  0.06457103  0.25921780    -2.46870
O166        O  0.14382226  0.11322487  0.29111714    -0.78890
O167        O  0.17933685  0.14045310  0.22328759    -0.71090
O168        O  0.09558646  0.12202184  0.25898466    -2.32040
O169        O  0.16174338  0.19028290  0.25694590    -2.28250
O170        O  0.11546105  0.07057872  0.22942511    -0.72850
H171        H  0.13199924  0.15417185  0.17230870     0.79150
H172        H  0.07862585  0.11981139  0.26563867     0.80240
H173        H  0.16869740  0.03712070  0.26540296     0.82460
H174        H  0.17063297  0.21449124  0.26315489     0.80070
H175        H  0.04791478  0.09189628  0.23253919     0.43100
H176        H  0.07399842  0.01596211  0.26042472     0.42080
H177        H  0.14022238  0.01846776  0.33226453     0.41750
H178        H  0.18327351  0.04291648  0.31326529     0.39690
H179        H  0.23683710  0.14972890  0.26940424     0.42820
H180        H  0.20076193  0.24391798  0.22838203     0.37600
H181        H  0.12076243  0.25790664  0.16955351     0.43720
H182        H  0.08849715  0.17740213  0.15254999     0.40130
H183        H  0.20603923  0.03591653  0.29538794     0.45050
H184        H  0.19681178  0.26641035  0.19693892     0.43780
H185        H  0.06147347  0.18017099  0.16387788     0.43910
H186        H  0.07700374  0.99685079  0.29223470     0.44270
O187        O  0.17595328  0.70378805  0.17963626    -0.74600
O188        O  0.17118041  0.63674467  0.16647748    -0.53510
C189        C  0.17880579  0.67869207  0.16234409     0.79130
O190        O  0.17709732  0.66357181  0.30797439    -0.59200
O191        O  0.14005601  0.64904584  0.32595536    -0.52230
C192        C  0.16449815  0.64738163  0.32867745     0.71140
O193        O  0.20919745  0.58249437  0.25441492    -0.73760
O194        O  0.19455568  0.55454875  0.21767718    -0.54320
C195        C  0.21216600  0.55909322  0.23627761     0.77150
O196        O  0.13988721  0.77249963  0.23406742    -0.58900
O197        O  0.12418584  0.75398666  0.27708319    -0.52020
C198        C  0.13225821  0.78247381  0.25637481     0.73740
Zr199      Zr  0.14586347  0.70888465  0.21267523     2.54710
O200        O  0.17380359  0.77238828  0.19867786    -0.79470
O201        O  0.11267233  0.74366114  0.17995213    -0.92890
Zr202      Zr  0.17750545  0.62106594  0.27258829     2.64680
O203        O  0.21754237  0.66163885  0.27148501    -0.97840
O204        O  0.19241035  0.56246750  0.31070550    -0.79900
O205        O  0.17180686  0.64412397  0.22438470    -0.83260
O206        O  0.15529876  0.68938976  0.26045807    -2.17970
O207        O  0.05711613  0.68205952  0.23121091    -0.66650
O208        O  0.07253081  0.70468358  0.27031688    -0.51210
C209        C  0.05543825  0.70323753  0.25096750     0.72120
O210        O  0.12205416  0.48875612  0.25950953    -0.59560
O211        O  0.14294319  0.50446507  0.21907563    -0.51530
C212        C  0.13248786  0.47726792  0.23898340     0.73920
O213        O  0.08808320  0.57219828  0.31930118    -0.70950
O214        O  0.09142674  0.64690612  0.31915743    -0.49630
C215        C  0.08326749  0.60794648  0.32936250     0.75310
O216        O  0.08232423  0.58499808  0.18097962    -0.66280
O217        O  0.12096208  0.56037837  0.17200653    -0.53480
C218        C  0.09640510  0.56279988  0.16782395     0.73690
Zr219      Zr  0.08601945  0.63603152  0.21353313     2.77540
O220        O  0.04616266  0.59560847  0.21402587    -0.97030
O221        O  0.07195045  0.68852190  0.17191744    -0.77850
Zr222      Zr  0.11203382  0.55336634  0.27836611     2.70070
O223        O  0.06947185  0.52509763  0.27191409    -0.79100
O224        O  0.12356687  0.48740094  0.31314635    -0.98180
Zr225      Zr  0.15042010  0.58525612  0.20743049     2.21500
Zr226      Zr  0.11531226  0.67438203  0.28063987     2.11130
O227        O  0.08988256  0.61971813  0.26283201    -2.46870
O228        O  0.11013019  0.57169211  0.22891609    -0.78890
O229        O  0.10670275  0.69394604  0.23189906    -0.71090
O230        O  0.15303545  0.56489626  0.25748390    -2.32040
O231        O  0.12558425  0.65151909  0.19325422    -2.28250
O232        O  0.13807433  0.60636259  0.29392879    -0.72850
H233        H  0.16468529  0.71318653  0.26657827     0.79150
H234        H  0.16257276  0.53746409  0.26284125     0.80240
H235        H  0.07329861  0.61694271  0.27045741     0.82460
H236        H  0.12358970  0.65917686  0.17335576     0.80070
H237        H  0.17941631  0.53871783  0.31183746     0.43100
H238        H  0.11107665  0.48565016  0.32765413     0.42080
H239        H  0.06830991  0.52222022  0.25229830     0.41750
H240        H  0.04216918  0.58809736  0.23375301     0.39690
H241        H  0.05452711  0.69692665  0.17546214     0.42820
H242        H  0.11623692  0.73592550  0.16199869     0.37600
H243        H  0.18822165  0.76739795  0.21245004     0.43720
H244        H  0.22205919  0.66728798  0.25186667     0.40130
H245        H  0.03348574  0.61836532  0.20533609     0.45050
H246        H  0.11584507  0.77610419  0.17760571     0.43780
H247        H  0.21321691  0.69157415  0.27477955     0.43910
H248        H  0.13997320  0.49455957  0.32170222     0.44270
O249        O  0.22093485  0.30947747  0.05596264    -0.74600
O250        O  0.26006897  0.29891633  0.07221128    -0.53510
C251        C  0.23597729  0.29287638  0.07586180     0.79130
O252        O  0.27712354  0.14740118  0.00549191    -0.59200
O253        O  0.25503650  0.16237830  0.96384223    -0.52230
C254        C  0.26610931  0.13543525  0.98444271     0.71140
O255        O  0.30574318  0.23516755  0.06697162    -0.73760
O256        O  0.31624113  0.30762245  0.05453876    -0.54320
C257        C  0.31552115  0.27194696  0.07248208     0.77150
O258        O  0.18926226  0.22520216  0.99973412    -0.58900
O259        O  0.20238473  0.20730533  0.95993787    -0.52020
C260        C  0.18643224  0.20509716  0.97946717     0.73740
Zr261      Zr  0.21905010  0.27232414  0.01787071     2.54710
O262        O  0.20629574  0.21217054  0.05470050    -0.79470
O263        O  0.17780911  0.30843265  0.01466200    -0.92890
Zr264      Zr  0.28715733  0.21409952  0.02293524     2.64680
O265        O  0.27920419  0.15084415  0.06009925    -0.97840
O266        O  0.33047154  0.18969529  0.01969795    -0.79900
O267        O  0.26070056  0.26396340  0.03842187    -0.83260
O268        O  0.24471234  0.21992711  0.00256369    -2.17970
O269        O  0.20819793  0.33862343  0.93359159    -0.66650
O270        O  0.22482389  0.29080741  0.91077887    -0.51210
C271        C  0.21233044  0.32703077  0.91095679     0.72120
O272        O  0.33772592  0.35040825  0.98130920    -0.59560
O273        O  0.32260569  0.36960980  0.02021915    -0.51530
C274        C  0.33995192  0.36891370  0.00257208     0.73920
O275        O  0.30640904  0.26426960  0.92214380    -0.70950
O276        O  0.27059251  0.22609366  0.91565092    -0.49630
C277        C  0.29336712  0.23840927  0.90911256     0.75310
O278        O  0.24833148  0.43036107  0.98118255    -0.66280
O279        O  0.26946419  0.41376514  0.02311426    -0.53480
C280        C  0.25844963  0.44144745  0.00292948     0.73690
Zr281      Zr  0.24179420  0.36690779  0.95917997     2.77540
O282        O  0.25923167  0.41962926  0.92099380    -0.97030
O283        O  0.20627526  0.41833862  0.94724202    -0.77850
Zr284      Zr  0.30712630  0.30549116  0.96015349     2.70070
O285        O  0.32132064  0.36118990  0.92146203    -0.79100
O286        O  0.34690062  0.26412524  0.96881255    -0.98180
Zr287      Zr  0.28039174  0.33494296  0.02671232     2.21500
Zr288      Zr  0.24509737  0.24255361  0.95304646     2.11130
O289        O  0.26548354  0.31439369  0.94058390    -2.46870
O290        O  0.28349135  0.35855335  0.97790974    -0.78890
O291        O  0.22085285  0.29661941  0.96988552    -0.71090
O292        O  0.30571955  0.28377737  0.00836408    -2.32040
O293        O  0.23800350  0.34432508  0.00724883    -2.28250
O294        O  0.28747345  0.23539324  0.97361931    -0.72850
H295        H  0.23647899  0.19124516  0.00741220     0.79150
H296        H  0.32316039  0.28126582  0.01514262     0.80240
H297        H  0.26641632  0.32342294  0.92082912     0.82460
H298        H  0.22841969  0.36593507  0.01443624     0.80070
H299        H  0.33882669  0.19127610  0.03781457     0.43100
H300        H  0.34539059  0.24035846  0.95782223     0.42080
H301        H  0.31903518  0.39014439  0.92719321     0.41750
H302        H  0.27115232  0.40244669  0.91229953     0.39690
H303        H  0.19281530  0.40484043  0.95957175     0.42820
H304        H  0.18137204  0.33874406  0.01819361     0.37600
H305        H  0.22172149  0.19364517  0.05973788     0.43720
H306        H  0.26720749  0.16238586  0.07182564     0.40130
H307        H  0.24493200  0.42767848  0.90735922     0.45050
H308        H  0.16918020  0.29284545  0.03123535     0.43780
H309        H  0.29528091  0.14640285  0.07138067     0.43910
H310        H  0.35990639  0.28489027  0.95982953     0.44270
O311        O  0.21688843  0.80141396  0.05344266    -0.74600
O312        O  0.25715657  0.80102916  0.06883334    -0.53510
C313        C  0.23347432  0.79076133  0.07275303     0.79130
O314        O  0.27674889  0.64815717  0.00195612    -0.59200
O315        O  0.25345612  0.66080288  0.96122689    -0.52230
C316        C  0.26490166  0.63465491  0.98192719     0.71140
O317        O  0.30578689  0.73007076  0.06368926    -0.73760
O318        O  0.30444667  0.80465324  0.06481043    -0.54320
C319        C  0.31035395  0.76399705  0.07543999     0.77150
O320        O  0.18953004  0.72676607  0.98860628    -0.58900
O321        O  0.20518467  0.70926622  0.94981861    -0.52020
C322        C  0.18784934  0.70904216  0.96708035     0.73740
Zr323      Zr  0.21833614  0.76641439  0.01493348     2.54710
O324        O  0.20204192  0.70502328  0.04877650    -0.79470
O325        O  0.17657489  0.80098654  0.01148641    -0.92890
Zr326      Zr  0.28893515  0.71536775  0.01801291     2.64680
O327        O  0.29862303  0.64840598  0.05317115    -0.97840
O328        O  0.33184843  0.70266861  0.00538189    -0.79900
O329        O  0.26066377  0.76193302  0.03437041    -0.83260
O330        O  0.24568736  0.71657294  0.99969305    -2.17970
O331        O  0.20199151  0.83319073  0.93802556    -0.66650
O332        O  0.21872468  0.78868553  0.91309716    -0.51210
C333        C  0.20331106  0.82064923  0.91522793     0.72120
O334        O  0.31969209  0.88118082  0.96636876    -0.59560
O335        O  0.32103958  0.87141351  0.01290552    -0.51530
C336        C  0.33065672  0.88652527  0.98901669     0.73920
O337        O  0.30594886  0.76934103  0.91900452    -0.70950
O338        O  0.27121299  0.72826377  0.91297217    -0.49630
C339        C  0.29361266  0.74190659  0.90657722     0.75310
O340        O  0.25033324  0.93092092  0.97447311    -0.66280
O341        O  0.26720129  0.91414569  0.01867586    -0.53480
C342        C  0.25892391  0.94209528  0.99683430     0.73690
Zr343      Zr  0.23807788  0.86423660  0.95799453     2.77540
O344        O  0.24118160  0.91444573  0.91332218    -0.97030
O345        O  0.20116504  0.90429537  0.96695896    -0.77850
Zr346      Zr  0.30545454  0.81074853  0.95668438     2.70070
O347        O  0.32381666  0.85550170  0.91593085    -0.79100
O348        O  0.34874769  0.78655916  0.97049800    -0.98180
Zr349      Zr  0.27893753  0.83487249  0.02452476     2.21500
Zr350      Zr  0.24633392  0.74234572  0.95027912     2.11130
O351        O  0.26358085  0.81628826  0.93732096    -2.46870
O352        O  0.27987946  0.85902296  0.97576058    -0.78890
O353        O  0.22053126  0.79211858  0.96795541    -0.71090
O354        O  0.30641255  0.78727310  0.00573803    -2.32040
O355        O  0.23619789  0.83978227  0.00612884    -2.28250
O356        O  0.28911046  0.73798511  0.96907035    -0.72850
H357        H  0.23766374  0.68771227  0.00439952     0.79150
H358        H  0.32341494  0.78763745  0.01374981     0.80240
H359        H  0.26360243  0.82595168  0.91748795     0.82460
H360        H  0.22655285  0.86065211  0.01388600     0.80070
H361        H  0.34256862  0.70494399  0.02199970     0.43100
H362        H  0.35077719  0.75860733  0.96356691     0.42080
H363        H  0.30964183  0.87439530  0.90649516     0.41750
H364        H  0.23848923  0.89529642  0.89946330     0.39690
H365        H  0.19183183  0.88270873  0.98056701     0.42820
H366        H  0.17857298  0.82715370  0.02043753     0.37600
H367        H  0.21214325  0.67883633  0.04677253     0.43720
H368        H  0.28499406  0.62638313  0.05180908     0.40130
H369        H  0.22568124  0.93300878  0.91138315     0.45050
H370        H  0.16629087  0.77959901  0.02424705     0.43780
H371        H  0.31387033  0.63534929  0.04693657     0.43910
H372        H  0.35955371  0.80876560  0.95895300     0.44270
O373        O  0.46769674  0.05580575  0.04800814    -0.74600
O374        O  0.00707285  0.04822704  0.06586925    -0.53510
C375        C  0.48275110  0.04274688  0.06849687     0.79130
O376        O  0.02443719  0.88651856  0.99492894    -0.59200
O377        O  0.00142853  0.90618307  0.95398238    -0.52230
C378        C  0.01317227  0.87711589  0.97293002     0.71140
O379        O  0.05680048  0.96573122  0.06106641    -0.73760
O380        O  0.05968205  0.04082164  0.06069686    -0.54320
C381        C  0.06455944  0.99997598  0.07151121     0.77150
O382        O  0.43546206  0.97894035  0.99153210    -0.58900
O383        O  0.44881029  0.95825376  0.95252897    -0.52020
C384        C  0.43207793  0.95983969  0.97098712     0.73740
Zr385      Zr  0.46864559  0.01734949  0.01066602     2.54710
O386        O  0.45722204  0.95137558  0.04428886    -0.79470
O387        O  0.42932748  0.06021880  0.00344418    -0.92890
Zr388      Zr  0.03374500  0.95080450  0.01734368     2.64680
O389        O  0.01911216  0.89229267  0.05425218    -0.97840
O390        O  0.07551335  0.91863815  0.01575294    -0.79900
O391        O  0.00957766  0.00462752  0.03270479    -0.83260
O392        O  0.99202972  0.96222392  0.99525992    -2.17970
O393        O  0.47691124  0.10624938  0.91170362    -0.66650
O394        O  0.47446667  0.03532790  0.90322107    -0.51210
C395        C  0.47133642  0.07844942  0.89625415     0.72120
O396        O  0.08598724  0.09485335  0.97126699    -0.59560
O397        O  0.07332202  0.11316901  0.01129772    -0.51530
C398        C  0.08861804  0.11637639  0.99097829     0.73920
O399        O  0.05937201  0.99469081  0.92195603    -0.70950
O400        O  0.02072830  0.96934111  0.91001558    -0.49630
C401        C  0.04486394  0.97448409  0.90669688     0.75310
O402        O  0.00434710  0.17264333  0.97899154    -0.66280
O403        O  0.02159442  0.15050807  0.02222603    -0.53480
C404        C  0.01214925  0.18076766  0.00255350     0.73690
Zr405      Zr  0.99555396  0.11075300  0.95534040     2.77540
O406        O  0.01142309  0.17526107  0.92338954    -0.97030
O407        O  0.45393014  0.14462682  0.95488451    -0.77850
Zr408      Zr  0.05772598  0.04108303  0.95688802     2.70070
O409        O  0.06681125  0.09464911  0.91514287    -0.79100
O410        O  0.09970611  0.00730902  0.96368878    -0.98180
Zr411      Zr  0.03225401  0.07325280  0.02293322     2.21500
Zr412      Zr  0.99359389  0.98691781  0.94615653     2.11130
O413        O  0.01693942  0.05573084  0.93641497    -2.46870
O414        O  0.03663864  0.09685163  0.97456029    -0.78890
O415        O  0.47171547  0.04344183  0.96295259    -0.71090
O416        O  0.05594068  0.01891668  0.00553891    -2.32040
O417        O  0.49058834  0.08620495  0.00259788    -2.28250
O418        O  0.03510706  0.97401737  0.96844312    -0.72850
H419        H  0.48276786  0.93446235  0.99920619     0.79150
H420        H  0.07297619  0.01629339  0.01364607     0.80240
H421        H  0.01885603  0.06540065  0.91680186     0.82460
H422        H  0.48150563  0.10860542  0.00958195     0.80070
H423        H  0.08724419  0.93673411  0.02524017     0.43100
H424        H  0.09672784  0.97521583  0.96376561     0.42080
H425        H  0.05905386  0.12272780  0.91776840     0.41750
H426        H  0.02171167  0.16257246  0.91063595     0.39690
H427        H  0.44229731  0.12585370  0.94577690     0.42820
H428        H  0.42501758  0.06448545  0.98339109     0.37600
H429        H  0.47332725  0.94108667  0.05447390     0.43720
H430        H  0.00386048  0.87979472  0.04617015     0.40130
H431        H  0.49653315  0.18798072  0.91190626     0.45050
H432        H  0.43414241  0.09042902  0.00631400     0.43780
H433        H  0.03202875  0.86844373  0.05615519     0.43910
H434        H  0.10813727  0.01871127  0.94619349     0.44270
O435        O  0.06509986  0.48830918  0.06160831    -0.74600
O436        O  0.02393204  0.47855415  0.06986422    -0.53510
C437        C  0.04728564  0.48485518  0.07823465     0.79130
O438        O  0.49979928  0.66551788  0.98661667    -0.59200
O439        O  0.02621128  0.66877101  0.95055750    -0.52230
C440        C  0.01304268  0.68703458  0.96689937     0.71140
O441        O  0.47353494  0.54309996  0.05383137    -0.73760
O442        O  0.46700855  0.47261125  0.04749908    -0.54320
C443        C  0.46582397  0.50195183  0.06185755     0.77150
O444        O  0.08829461  0.59177050  0.99340239    -0.58900
O445        O  0.07570432  0.62233328  0.94956911    -0.52020
C446        C  0.09180780  0.61762948  0.97028682     0.73740
Zr447      Zr  0.06096089  0.53614315  0.01721636     2.54710
O448        O  0.07079521  0.58631734  0.04896928    -0.79470
O449        O  0.10277082  0.50157662  0.02149985    -0.92890
Zr450      Zr  0.49132230  0.58839724  0.00970854     2.64680
O451        O  0.49570778  0.63983331  0.04148220    -0.97840
O452        O  0.44753211  0.61278145  0.99973027    -0.79900
O453        O  0.01934904  0.53285933  0.03376677    -0.83260
O454        O  0.03388465  0.59373743  0.99407820    -2.17970
O455        O  0.07119648  0.50232148  0.93000727    -0.66650
O456        O  0.05165884  0.56277556  0.90588517    -0.51210
C457        C  0.06386026  0.52559073  0.90672410     0.72120
O458        O  0.44357547  0.46992483  0.97777136    -0.59560
O459        O  0.45979160  0.43295714  0.01960452    -0.51530
C460        C  0.44147080  0.44276172  0.00107068     0.73920
O461        O  0.46741922  0.59217096  0.92102549    -0.70950
O462        O  0.00389355  0.62986281  0.91041374    -0.49630
C463        C  0.47964193  0.62621472  0.90799102     0.75310
O464        O  0.02821738  0.38898140  0.98487606    -0.66280
O465        O  0.51246224  0.38732776  0.02735694    -0.53480
C466        C  0.01893257  0.36850303  0.00760416     0.73690
Zr467      Zr  0.04239231  0.46297548  0.96279515     2.77540
O468        O  0.03584526  0.42539007  0.92396886    -0.97030
O469        O  0.08086862  0.41971509  0.97683349    -0.77850
Zr470      Zr  0.47460732  0.51846132  0.95140677     2.70070
O471        O  0.47720925  0.47294994  0.91627028    -0.79100
O472        O  0.43325386  0.52431719  0.92693900    -0.98180
Zr473      Zr  0.50256731  0.46522137  0.02409611     2.21500
Zr474      Zr  0.03354059  0.59084299  0.94573046     2.11130
O475        O  0.01628444  0.52167954  0.93655315    -2.46870
O476        O  0.50022668  0.45967899  0.97661403    -0.78890
O477        O  0.06001865  0.53164298  0.97019177    -0.71090
O478        O  0.47491544  0.52266857  0.99875481    -2.32040
O479        O  0.04495220  0.46631344  0.01018420    -2.28250
O480        O  0.49119550  0.58555394  0.96180576    -0.72850
H481        H  0.04140530  0.62127391  0.99728718     0.79150
H482        H  0.45775140  0.52199954  0.00466373     0.80240
H483        H  0.01524111  0.52048422  0.91717998     0.82460
H484        H  0.05463371  0.44167993  0.02095069     0.80070
H485        H  0.43850142  0.59855545  0.01633437     0.43100
H486        H  0.42104464  0.52959054  0.94051849     0.42080
H487        H  0.47361619  0.49394163  0.89851575     0.41750
H488        H  0.01786564  0.41606439  0.92451977     0.39690
H489        H  0.09423822  0.44243393  0.97751471     0.42820
H490        H  0.09953695  0.47020253  0.01990855     0.37600
H491        H  0.08259628  0.56947606  0.06336274     0.43720
H492        H  0.01185411  0.63017925  0.05263174     0.40130
H493        H  0.04547107  0.39710793  0.92948242     0.45050
H494        H  0.10858559  0.49947056  0.04102627     0.43780
H495        H  0.48200245  0.63161795  0.05455869     0.43910
H496        H  0.42924196  0.49384458  0.92395220     0.44270
O497        O  0.34881498  0.15460787  0.80536098    -0.74600
O498        O  0.34977716  0.23064029  0.79931608    -0.53510
C499        C  0.34354274  0.19246136  0.81290928     0.79130
O500        O  0.47146684  0.14659892  0.74383076    -0.59200
O501        O  0.45341327  0.11530685  0.70947480    -0.52230
C502        C  0.47187274  0.12053256  0.72645598     0.71140
O503        O  0.43710592  0.23167355  0.79661359    -0.73760
O504        O  0.39828850  0.21486149  0.80812813    -0.54320
C505        C  0.42226316  0.21352082  0.81482786     0.77150
O506        O  0.38477322  0.05718198  0.75358723    -0.58900
O507        O  0.40547509  0.06975417  0.71342617    -0.52020
C508        C  0.39598689  0.04365200  0.73413239     0.73740
Zr509      Zr  0.37146871  0.12584446  0.76683471     2.54710
O510        O  0.38321192  0.07294454  0.80907332    -0.79470
O511        O  0.33053314  0.08950590  0.76361423    -0.92890
Zr512      Zr  0.43980388  0.19040586  0.76074345     2.64680
O513        O  0.45661767  0.13214153  0.79808534    -0.97840
O514        O  0.47883091  0.23350116  0.75990864    -0.79900
O515        O  0.39832613  0.18017232  0.77832024    -0.83260
O516        O  0.41379285  0.13305578  0.74910760    -2.17970
O517        O  0.34763594  0.14788869  0.66646233    -0.66650
O518        O  0.38693806  0.11812765  0.66531039    -0.51210
C519        C  0.36328707  0.12146411  0.65786339     0.72120
O520        O  0.40290041  0.34245126  0.71582129    -0.59560
O521        O  0.38666904  0.32479134  0.75865734    -0.51530
C522        C  0.39486014  0.35272596  0.73802267     0.73920
O523        O  0.44818877  0.24422723  0.68212089    -0.70950
O524        O  0.43484998  0.19126705  0.65988186    -0.49630
C525        C  0.44741511  0.22770603  0.66045357     0.75310
O526        O  0.31849162  0.25425603  0.71219847    -0.66280
O527        O  0.33478575  0.28140291  0.74925427    -0.53480
C528        C  0.31724299  0.27837782  0.73070197     0.73690
Zr529      Zr  0.34789989  0.20430535  0.69714235     2.77540
O530        O  0.33553878  0.25455061  0.65394927    -0.97030
O531        O  0.30604006  0.17019196  0.69814904    -0.77850
Zr532      Zr  0.41090476  0.27583258  0.69636948     2.70070
O533        O  0.39227349  0.30778324  0.65083523    -0.79100
O534        O  0.43774745  0.33900077  0.67781079    -0.98180
Zr535      Zr  0.37630536  0.24734031  0.76199899     2.21500
Zr536      Zr  0.41153087  0.14914917  0.69967631     2.11130
O537        O  0.38890792  0.21642929  0.67981397    -2.46870
O538        O  0.37000584  0.26382253  0.71290305    -0.78890
O539        O  0.36981260  0.13871726  0.71741384    -0.71090
O540        O  0.41789170  0.25978623  0.74496300    -2.32040
O541        O  0.35023768  0.19190540  0.74652390    -2.28250
O542        O  0.43475924  0.20911450  0.71285152    -0.72850
H543        H  0.42292687  0.10547505  0.75564772     0.79150
H544        H  0.42705357  0.28351817  0.75140838     0.80240
H545        H  0.38831072  0.22090686  0.65991722     0.82460
H546        H  0.33347903  0.19141281  0.75361902     0.80070
H547        H  0.47785576  0.25428629  0.74176182     0.43100
H548        H  0.45368765  0.33404406  0.68930839     0.42080
H549        H  0.37842716  0.32712722  0.65455980     0.41750
H550        H  0.34955510  0.25355658  0.64148802     0.39690
H551        H  0.30924402  0.13777313  0.70436616     0.42820
H552        H  0.31846629  0.11411321  0.75643027     0.37600
H553        H  0.40193027  0.07138790  0.80912288     0.43720
H554        H  0.45321919  0.10340335  0.79223081     0.40130
H555        H  0.32128151  0.23912947  0.64608526     0.45050
H556        H  0.32604596  0.07898149  0.78306901     0.43780
H557        H  0.47525806  0.13565443  0.79772057     0.43910
H558        H  0.44234278  0.33416112  0.65942609     0.44270
O559        O  0.34995985  0.65868331  0.80696435    -0.74600
O560        O  0.35047310  0.73485271  0.79703531    -0.53510
C561        C  0.34421199  0.69783104  0.81195059     0.79130
O562        O  0.47418404  0.64771879  0.74920829    -0.59200
O563        O  0.45804562  0.61803017  0.71345653    -0.52230
C564        C  0.47611881  0.62467288  0.73036573     0.71140
O565        O  0.44188720  0.74009658  0.79646275    -0.73760
O566        O  0.40199409  0.73479642  0.80852297    -0.54320
C567        C  0.42594170  0.73414248  0.81514170     0.77150
O568        O  0.38127511  0.55482045  0.75900582    -0.58900
O569        O  0.40796429  0.56342759  0.72291873    -0.52020
C570        C  0.39439243  0.53985600  0.74148865     0.73740
Zr571      Zr  0.37387901  0.62626373  0.77195048     2.54710
O572        O  0.38840425  0.57876954  0.81531561    -0.79470
O573        O  0.33301619  0.58853118  0.77331192    -0.92890
Zr574      Zr  0.44139746  0.68756092  0.76684508     2.64680
O575        O  0.44835965  0.63112798  0.80884989    -0.97840
O576        O  0.48349714  0.71456004  0.77714043    -0.79900
O577        O  0.39988385  0.68246227  0.78403904    -0.83260
O578        O  0.41650425  0.62857525  0.75580687    -2.17970
O579        O  0.35325038  0.63772393  0.67460584    -0.66650
O580        O  0.39234121  0.60817887  0.67288869    -0.51210
C581        C  0.36863690  0.61053958  0.66622901     0.72120
O582        O  0.40983518  0.83974174  0.71509698    -0.59560
O583        O  0.39208829  0.82528691  0.75682791    -0.51530
C584        C  0.40137345  0.85211949  0.73652949     0.73920
O585        O  0.45083704  0.73825294  0.67854579    -0.70950
O586        O  0.43580609  0.67774735  0.66361143    -0.49630
C587        C  0.44867848  0.71439402  0.66017386     0.75310
O588        O  0.32170061  0.75184374  0.71333886    -0.66280
O589        O  0.33839405  0.78553536  0.74745319    -0.53480
C590        C  0.32045058  0.77941431  0.72990724     0.73690
Zr591      Zr  0.35216335  0.70140449  0.69972051     2.77540
O592        O  0.34357986  0.74982521  0.65483258    -0.97030
O593        O  0.30941856  0.67234801  0.69571554    -0.77850
Zr594      Zr  0.41624982  0.77002301  0.69812352     2.70070
O595        O  0.39579435  0.80684507  0.65466041    -0.79100
O596        O  0.44705253  0.82648981  0.67934522    -0.98180
Zr597      Zr  0.37943373  0.74945360  0.76202093     2.21500
Zr598      Zr  0.41482065  0.64290900  0.70630638     2.11130
O599        O  0.39358902  0.70994271  0.68344995    -2.46870
O600        O  0.37458919  0.76256473  0.71299645    -0.78890
O601        O  0.37278898  0.63608278  0.72274363    -0.71090
O602        O  0.42165133  0.75716351  0.74661001    -2.32040
O603        O  0.35363740  0.69195973  0.74879302    -2.28250
O604        O  0.43872946  0.70321198  0.71828897    -0.72850
H605        H  0.42516951  0.60075593  0.76322050     0.79150
H606        H  0.43112357  0.78149527  0.75193191     0.80240
H607        H  0.39334045  0.71283487  0.66364543     0.82460
H608        H  0.33666924  0.69260779  0.75519756     0.80070
H609        H  0.48442005  0.74469013  0.76525854     0.43100
H610        H  0.46355628  0.81562690  0.68836945     0.42080
H611        H  0.39179874  0.83720769  0.65747435     0.41750
H612        H  0.34844856  0.77997600  0.65771994     0.39690
H613        H  0.30822097  0.64789591  0.71209272     0.42820
H614        H  0.32042754  0.61284539  0.76777079     0.37600
H615        H  0.40544449  0.56859680  0.81169346     0.43720
H616        H  0.45786216  0.60704223  0.80299655     0.40130
H617        H  0.35641406  0.74233434  0.64252214     0.45050
H618        H  0.33049793  0.57726740  0.79321726     0.43780
H619        H  0.46087045  0.64474541  0.82022314     0.43910
H620        H  0.44840138  0.82435094  0.65972531     0.44270
O621        O  0.08981327  0.41416487  0.80303259    -0.74600
O622        O  0.09885061  0.48840685  0.79901784    -0.53510
C623        C  0.08714447  0.45323573  0.81027854     0.79130
O624        O  0.21719589  0.38182603  0.75032303    -0.59200
O625        O  0.20060462  0.35392482  0.71399309    -0.52230
C626        C  0.21856531  0.35828144  0.73162657     0.71140
O627        O  0.18963781  0.47615298  0.79964065    -0.73760
O628        O  0.15028338  0.47518058  0.81221981    -0.54320
C629        C  0.17414557  0.46656289  0.81855204     0.77150
O630        O  0.11866297  0.30718541  0.75233122    -0.58900
O631        O  0.14968319  0.31211273  0.72124406    -0.52020
C632        C  0.13296130  0.29007867  0.73656062     0.73740
Zr633      Zr  0.11562342  0.37715086  0.76960413     2.54710
O634        O  0.12790025  0.32178194  0.81059953    -0.79470
O635        O  0.07315251  0.34548266  0.76979273    -0.92890
Zr636      Zr  0.18698863  0.42639954  0.76844807     2.64680
O637        O  0.19234179  0.36760485  0.80942712    -0.97840
O638        O  0.23091384  0.44731730  0.77584384    -0.79900
O639        O  0.14494164  0.42662560  0.78444496    -0.83260
O640        O  0.15866324  0.37398588  0.75474684    -2.17970
O641        O  0.09657032  0.39344664  0.67070588    -0.66650
O642        O  0.13570630  0.36422982  0.66869315    -0.51210
C643        C  0.11193631  0.36642810  0.66203810     0.72120
O644        O  0.16130173  0.58540541  0.71563698    -0.59560
O645        O  0.14207915  0.57551280  0.75682930    -0.51530
C646        C  0.15230934  0.59984505  0.73591122     0.73920
O647        O  0.20228294  0.47446565  0.68865369    -0.70950
O648        O  0.18505966  0.42572611  0.66555661    -0.49630
C649        C  0.20010539  0.45892543  0.66670092     0.75310
O650        O  0.07324747  0.51096176  0.71147688    -0.66280
O651        O  0.08850457  0.53565996  0.74995481    -0.53480
C652        C  0.07170364  0.53420547  0.73040761     0.73690
Zr653      Zr  0.10038627  0.45657441  0.69745904     2.77540
O654        O  0.09466867  0.50691920  0.65274780    -0.97030
O655        O  0.05677646  0.43421446  0.69001486    -0.77850
Zr656      Zr  0.16745676  0.51500654  0.70090680     2.70070
O657        O  0.15441524  0.55159958  0.65411768    -0.79100
O658        O  0.20133032  0.56876433  0.68789819    -0.98180
Zr659      Zr  0.12875273  0.49825105  0.76431171     2.21500
Zr660      Zr  0.15970511  0.38983837  0.70525713     2.11130
O661        O  0.14231588  0.46049728  0.68307830    -2.46870
O662        O  0.12542919  0.51211390  0.71472071    -0.78890
O663        O  0.11705344  0.38794531  0.72024920    -0.71090
O664        O  0.17117694  0.50023186  0.74973421    -2.32040
O665        O  0.10035632  0.44678853  0.74690823    -2.28250
O666        O  0.18595631  0.44450297  0.72028308    -0.72850
H667        H  0.16553555  0.34455646  0.76187951     0.79150
H668        H  0.18136852  0.52319689  0.75577782     0.80240
H669        H  0.14254022  0.46449742  0.66314507     0.82460
H670        H  0.08324887  0.44936164  0.75249362     0.80070
H671        H  0.23376858  0.47309771  0.76063475     0.43100
H672        H  0.21628051  0.55614855  0.69955406     0.42080
H673        H  0.14974429  0.58228461  0.65573486     0.41750
H674        H  0.10542950  0.53310520  0.65419792     0.39690
H675        H  0.05049499  0.45554188  0.67332823     0.42820
H676        H  0.06171465  0.37160811  0.76461975     0.37600
H677        H  0.14347221  0.30787827  0.80571927     0.43720
H678        H  0.18845792  0.33927988  0.80330061     0.40130
H679        H  0.10308470  0.49200453  0.63952178     0.45050
H680        H  0.07021400  0.33362884  0.78954502     0.43780
H681        H  0.21084535  0.36667577  0.81352903     0.43910
H682        H  0.20537144  0.56605947  0.66892926     0.44270
O683        O  0.10287245  0.89098253  0.80521783    -0.74600
O684        O  0.09094106  0.96361536  0.79253672    -0.53510
C685        C  0.09185401  0.92694443  0.80998483     0.79130
O686        O  0.21893535  0.89012531  0.74566727    -0.59200
O687        O  0.20534878  0.86676816  0.70676971    -0.52230
C688        C  0.22191624  0.86790371  0.72649048     0.71140
O689        O  0.18569393  0.95737273  0.80315713    -0.73760
O690        O  0.14353011  0.95419428  0.80697686    -0.54320
C691        C  0.16645743  0.94604097  0.81743645     0.77150
O692        O  0.13757711  0.80035198  0.75048794    -0.58900
O693        O  0.15915732  0.81694359  0.71041097    -0.52020
C694        C  0.14939319  0.78959476  0.73060693     0.73740
Zr695      Zr  0.12297589  0.86787357  0.76349574     2.54710
O696        O  0.12817483  0.80868666  0.80435812    -0.79470
O697        O  0.08132384  0.83818386  0.75387812    -0.92890
Zr698      Zr  0.18875413  0.94277230  0.75743348     2.64680
O699        O  0.22385484  0.93103259  0.79191505    -0.97840
O700        O  0.21565961  0.00595133  0.73930304    -0.79900
O701        O  0.14751677  0.92573309  0.77431812    -0.83260
O702        O  0.16547311  0.88140146  0.74575268    -2.17970
O703        O  0.10062126  0.88346599  0.66846065    -0.66650
O704        O  0.14123749  0.86703650  0.66100557    -0.51210
C705        C  0.11727582  0.86259560  0.65707997     0.72120
O706        O  0.14209440  0.08675878  0.71440386    -0.59560
O707        O  0.12771505  0.06870711  0.75745380    -0.51530
C708        C  0.13348374  0.09780155  0.73599074     0.73920
O709        O  0.18364016  0.01466889  0.66080253    -0.70950
O710        O  0.18753115  0.94115927  0.65807709    -0.49630
C711        C  0.19216526  0.98355496  0.65003515     0.75310
O712        O  0.06491080  0.99166850  0.70939562    -0.66280
O713        O  0.08032746  0.02080944  0.74622169    -0.53480
C714        C  0.06318393  0.01644984  0.72754223     0.73690
Zr715      Zr  0.09695759  0.94475489  0.69491812     2.77540
O716        O  0.08823725  0.99387840  0.65027613    -0.97030
O717        O  0.05511201  0.91180573  0.69145153    -0.77850
Zr718      Zr  0.15624685  0.02378174  0.69567705     2.70070
O719        O  0.13352952  0.06662201  0.65522605    -0.79100
O720        O  0.18909768  0.08111824  0.69129212    -0.98180
Zr721      Zr  0.12202503  0.98896290  0.76054241     2.21500
Zr722      Zr  0.16307138  0.89813918  0.69670601     2.11130
O723        O  0.13773191  0.96252147  0.67816177    -2.46870
O724        O  0.11593311  0.00556752  0.71169201    -0.78890
O725        O  0.12158165  0.88181818  0.71422577    -0.71090
O726        O  0.16328746  0.00787610  0.74424575    -2.32040
O727        O  0.09876894  0.93102239  0.74417968    -2.28250
O728        O  0.18381816  0.96117135  0.70941006    -0.72850
H729        H  0.17546802  0.85458136  0.74998401     0.79150
H730        H  0.17074015  0.03251831  0.75137046     0.80240
H731        H  0.13729073  0.96838145  0.65820971     0.82460
H732        H  0.08184642  0.92774496  0.75094722     0.80070
H733        H  0.22062333  0.01903379  0.75555848     0.43100
H734        H  0.20536317  0.06471764  0.69322250     0.42080
H735        H  0.11714192  0.07420245  0.66212352     0.41750
H736        H  0.09398245  0.97710076  0.63647503     0.39690
H737        H  0.05665223  0.88156150  0.70318448     0.42820
H738        H  0.07229020  0.83665405  0.77116574     0.37600
H739        H  0.11144102  0.79377563  0.80609816     0.43720
H740        H  0.22298558  0.89942541  0.80134226     0.40130
H741        H  0.06952955  0.99434195  0.64787206     0.45050
H742        H  0.08444818  0.80659311  0.75295596     0.43780
H743        H  0.23946360  0.93325986  0.78135621     0.43910
H744        H  0.18786576  0.09647363  0.67165643     0.44270
O745        O  0.22317251  0.06888595  0.42502323    -0.74600
O746        O  0.22621341  0.99458055  0.42427384    -0.53510
C747        C  0.21654794  0.03423226  0.41583477     0.79130
O748        O  0.35258183  0.06424517  0.47131979    -0.59200
O749        O  0.33912571  0.10265846  0.50333581    -0.52230
C750        C  0.35574051  0.09167303  0.48760695     0.71140
O751        O  0.31530787  0.96863843  0.42562029    -0.73760
O752        O  0.27696862  0.93383391  0.42756951    -0.54320
C753        C  0.29918172  0.94096468  0.41794707     0.77150
O754        O  0.26033660  0.16218647  0.47108544    -0.58900
O755        O  0.28804216  0.15160116  0.50838922    -0.52020
C756        C  0.27356357  0.17616239  0.49025443     0.73740
Zr757      Zr  0.25391814  0.09038826  0.45609948     2.54710
O758        O  0.27000709  0.13252006  0.41321605    -0.79470
O759        O  0.21671662  0.13855706  0.45102370    -0.92890
Zr760      Zr  0.31773818  0.02310272  0.45647312     2.64680
O761        O  0.32393356  0.07490638  0.41303685    -0.97840
O762        O  0.35839750  0.98834567  0.45273996    -0.79900
O763        O  0.27487990  0.03092925  0.44060204    -0.83260
O764        O  0.29719286  0.08554188  0.46905749    -2.17970
O765        O  0.24356599  0.07499422  0.54055838    -0.66650
O766        O  0.27973740  0.07806813  0.56302536    -0.51210
C767        C  0.25559318  0.07284666  0.56356258     0.72120
O768        O  0.29057754  0.87653948  0.51947104    -0.59560
O769        O  0.26476905  0.88484325  0.48024226    -0.51530
C770        C  0.27747178  0.86112461  0.50068115     0.73920
O771        O  0.32329616  0.98664579  0.56898384    -0.70950
O772        O  0.33571708  0.05050392  0.54381547    -0.49630
C773        C  0.33384801  0.02605095  0.56719231     0.75310
O774        O  0.20234405  0.96035035  0.50827682    -0.66280
O775        O  0.21577583  0.92969522  0.47302156    -0.53480
C776        C  0.19940070  0.93510570  0.49039360     0.73690
Zr777      Zr  0.23536362  0.00646624  0.52481362     2.77540
O778        O  0.23058579  0.95474030  0.56871218    -0.97030
O779        O  0.19366021  0.02977592  0.53545537    -0.77850
Zr780      Zr  0.30321945  0.94890345  0.53043886     2.70070
O781        O  0.29739170  0.89554518  0.57337063    -0.79100
O782        O  0.34612099  0.92096954  0.52951006    -0.98180
Zr783      Zr  0.25644765  0.96314280  0.46353286     2.21500
Zr784      Zr  0.29789107  0.07347933  0.51814420     2.11130
O785        O  0.27845086  0.00515650  0.54155496    -2.46870
O786        O  0.25962869  0.94924615  0.51322108    -0.78890
O787        O  0.25406451  0.07608826  0.50434750    -0.71090
O788        O  0.29979389  0.95724459  0.48078991    -2.32040
O789        O  0.23348356  0.02208447  0.47632930    -2.28250
O790        O  0.32087089  0.01452614  0.50548164    -0.72850
H791        H  0.30550380  0.11327270  0.46140875     0.79150
H792        H  0.30801687  0.93201387  0.47584556     0.80240
H793        H  0.27901893  0.00064484  0.56137410     0.82460
H794        H  0.21584172  0.02254127  0.47030477     0.80070
H795        H  0.35854328  0.96080532  0.46722814     0.43100
H796        H  0.35635924  0.94787093  0.52265244     0.42080
H797        H  0.28908281  0.91290232  0.58541345     0.41750
H798        H  0.24622564  0.95671001  0.58012154     0.39690
H799        H  0.18874581  0.05395863  0.51962650     0.42820
H800        H  0.20226871  0.11817736  0.45619120     0.37600
H801        H  0.26675261  0.11310340  0.39958890     0.43720
H802        H  0.32513133  0.10472085  0.41800525     0.40130
H803        H  0.21711459  0.96772515  0.57792565     0.45050
H804        H  0.21405467  0.14997843  0.43090638     0.43780
H805        H  0.34132085  0.06863342  0.40814613     0.43910
H806        H  0.35163223  0.91181112  0.54922526     0.44270
O807        O  0.23668824  0.57310670  0.42439752    -0.74600
O808        O  0.23301423  0.49864682  0.42501852    -0.53510
C809        C  0.22877191  0.54048583  0.41396907     0.79130
O810        O  0.35311442  0.56149449  0.48851451    -0.59200
O811        O  0.33888046  0.59835898  0.52103422    -0.52230
C812        C  0.35568759  0.58901677  0.50491533     0.71140
O813        O  0.31907346  0.46239334  0.44109057    -0.73760
O814        O  0.28067662  0.43139734  0.43598549    -0.54320
C815        C  0.30425085  0.43616760  0.43038532     0.77150
O816        O  0.26779587  0.66107193  0.47547667    -0.58900
O817        O  0.28892059  0.64692206  0.51720617    -0.52020
C818        C  0.27848861  0.67331169  0.49657039     0.73740
Zr819      Zr  0.25996750  0.58952146  0.46259755     2.54710
O820        O  0.28089802  0.63583053  0.42422673    -0.79470
O821        O  0.22114341  0.63353403  0.45478473    -0.92890
Zr822      Zr  0.32135803  0.51484390  0.47247513     2.64680
O823        O  0.33811212  0.55726083  0.43004892    -0.97840
O824        O  0.36011911  0.47094893  0.48258623    -0.79900
O825        O  0.28078707  0.52778590  0.45024740    -0.83260
O826        O  0.30104855  0.57906139  0.48196451    -2.17970
O827        O  0.23683878  0.57323114  0.55136860    -0.66650
O828        O  0.27395117  0.57078612  0.57342453    -0.51210
C829        C  0.24960694  0.56832238  0.57412244     0.72120
O830        O  0.28530852  0.37124800  0.52636173    -0.59560
O831        O  0.26067303  0.38365990  0.48595155    -0.51530
C832        C  0.27256145  0.35825504  0.50634726     0.73920
O833        O  0.31691353  0.47522870  0.58172223    -0.70950
O834        O  0.33272725  0.53774112  0.55771839    -0.49630
C835        C  0.32930028  0.51279711  0.58071081     0.75310
O836        O  0.20248823  0.45897649  0.51527065    -0.66280
O837        O  0.21390647  0.43683920  0.47640628    -0.53480
C838        C  0.19844050  0.43771911  0.49566891     0.73690
Zr839      Zr  0.23265888  0.51145932  0.52784749     2.77540
O840        O  0.21903546  0.46739415  0.57131632    -0.97030
O841        O  0.19285465  0.55125857  0.51627754    -0.77850
Zr842      Zr  0.29691046  0.44164211  0.54148838     2.70070
O843        O  0.28192991  0.39137610  0.58219548    -0.79100
O844        O  0.33823386  0.40547027  0.54621640    -0.98180
Zr845      Zr  0.25696061  0.46317907  0.46899674     2.21500
Zr846      Zr  0.29675657  0.56787612  0.53054230     2.11130
O847        O  0.27349537  0.50179788  0.55032170    -2.46870
O848        O  0.25550955  0.45058571  0.51850702    -0.78890
O849        O  0.25525728  0.57760911  0.51039146    -0.71090
O850        O  0.29826175  0.45160808  0.49208408    -2.32040
O851        O  0.23536401  0.52512601  0.47944394    -2.28250
O852        O  0.31914733  0.50562981  0.52094699    -0.72850
H853        H  0.31067375  0.60573607  0.47523336     0.79150
H854        H  0.30628312  0.42561425  0.48792217     0.80240
H855        H  0.27192584  0.49581369  0.57008698     0.82460
H856        H  0.21848879  0.52795023  0.47090672     0.80070
H857        H  0.35433418  0.43989354  0.48920064     0.43100
H858        H  0.34649195  0.41362537  0.56290773     0.42080
H859        H  0.29758652  0.37901235  0.59257907     0.41750
H860        H  0.22683891  0.43767076  0.57250670     0.39690
H861        H  0.19772358  0.58108034  0.50591534     0.42820
H862        H  0.20723387  0.61179367  0.45404929     0.37600
H863        H  0.29341717  0.61569249  0.41874122     0.43720
H864        H  0.33600298  0.58889692  0.43140986     0.40130
H865        H  0.20067181  0.46241429  0.56825506     0.45050
H866        H  0.22185401  0.65086540  0.43564255     0.43780
H867        H  0.35664023  0.55227371  0.43228666     0.43910
H868        H  0.33451826  0.37317104  0.55178923     0.44270
O869        O  0.47588700  0.31004101  0.42808451    -0.74600
O870        O  0.48727631  0.24221698  0.42024800    -0.53510
C871        C  0.47615324  0.28081639  0.41302740     0.79130
O872        O  0.10164842  0.31403607  0.47960300    -0.59200
O873        O  0.08886068  0.33685971  0.51791776    -0.52230
C874        C  0.10501007  0.33524464  0.49933716     0.71140
O875        O  0.06922651  0.21585035  0.43043694    -0.73760
O876        O  0.03204927  0.17796034  0.42998234    -0.54320
C877        C  0.05430578  0.18789733  0.42100229     0.77150
O878        O  0.00893393  0.39840667  0.47993552    -0.58900
O879        O  0.04022460  0.39035903  0.51328706    -0.52020
C880        C  0.02383917  0.41381868  0.49710504     0.73740
Zr881      Zr  0.00592296  0.33106574  0.46032867     2.54710
O882        O  0.02585373  0.37675742  0.42098330    -0.79470
O883        O  0.47085397  0.38397219  0.44868349    -0.92890
Zr884      Zr  0.07102755  0.26375994  0.46560574     2.64680
O885        O  0.08907858  0.30821127  0.42454735    -0.97840
O886        O  0.10805776  0.21546464  0.47573258    -0.79900
O887        O  0.02944800  0.27405640  0.44563002    -0.83260
O888        O  0.04842952  0.32528132  0.47665031    -2.17970
O889        O  0.48360595  0.31706857  0.54096690    -0.66650
O890        O  0.01974888  0.32438137  0.56354850    -0.51210
C891        C  0.49548631  0.32067160  0.56330244     0.72120
O892        O  0.03895508  0.11603546  0.52235196    -0.59560
O893        O  0.01704271  0.12818965  0.48045589    -0.51530
C894        C  0.02747631  0.10256382  0.50164878     0.73920
O895        O  0.07226777  0.22070717  0.57663694    -0.70950
O896        O  0.06740158  0.29653009  0.56798949    -0.49630
C897        C  0.07547494  0.26040123  0.58308799     0.75310
O898        O  0.45552648  0.19340698  0.51262437    -0.66280
O899        O  0.46751474  0.17542430  0.47241901    -0.53480
C900        C  0.45231942  0.17410415  0.49209539     0.73690
Zr901      Zr  0.48427289  0.24637933  0.52679049     2.77540
O902        O  0.47955941  0.20279462  0.57335517    -0.97030
O903        O  0.43896661  0.25843409  0.52807031    -0.77850
Zr904      Zr  0.05125444  0.18748631  0.53637581     2.70070
O905        O  0.04023649  0.13499264  0.57800999    -0.79100
O906        O  0.09338063  0.15511314  0.53816705    -0.98180
Zr907      Zr  0.00932319  0.20623568  0.46506730     2.21500
Zr908      Zr  0.04540129  0.31177455  0.52539912     2.11130
O909        O  0.02585076  0.24368179  0.54713982    -2.46870
O910        O  0.50934518  0.19065203  0.51482012    -0.78890
O911        O  0.50274064  0.31652995  0.50824987    -0.71090
O912        O  0.05116960  0.19802858  0.48656586    -2.32040
O913        O  0.48468157  0.26282370  0.47808402    -2.28250
O914        O  0.07095370  0.25400958  0.51484483    -0.72850
H915        H  0.05703074  0.35319698  0.47014054     0.79150
H916        H  0.05985234  0.17322438  0.48163750     0.80240
H917        H  0.02545025  0.24089895  0.56690714     0.82460
H918        H  0.46736157  0.26277884  0.47098035     0.80070
H919        H  0.11444994  0.21377714  0.45743936     0.43100
H920        H  0.10504035  0.18096721  0.53671248     0.42080
H921        H  0.02215428  0.14113388  0.58022067     0.41750
H922        H  0.48664779  0.22107466  0.58628275     0.39690
H923        H  0.43432307  0.27748074  0.50989075     0.42820
H924        H  0.45528841  0.36622319  0.45323963     0.37600
H925        H  0.04235054  0.36221414  0.41996546     0.43720
H926        H  0.08819716  0.33957688  0.42697057     0.40130
H927        H  0.46109028  0.20215183  0.57600958     0.45050
H928        H  0.47008227  0.39299391  0.42827528     0.43780
H929        H  0.10737395  0.30086824  0.42643787     0.43910
H930        H  0.09597092  0.13881536  0.55750295     0.44270
O931        O  0.47359869  0.81288649  0.42481850    -0.74600
O932        O  0.47483145  0.73801839  0.42549550    -0.53510
C933        C  0.46549282  0.77791958  0.41688632     0.79130
O934        O  0.10205414  0.81337846  0.47296060    -0.59200
O935        O  0.08880256  0.84467220  0.50841233    -0.52230
C936        C  0.10513452  0.83847521  0.49095163     0.71140
O937        O  0.06839558  0.71016315  0.42639202    -0.73760
O938        O  0.02864184  0.68060669  0.42633072    -0.54320
C939        C  0.05144926  0.68428565  0.41807459     0.77150
O940        O  0.01591175  0.90501978  0.46743325    -0.58900
O941        O  0.03797746  0.89103553  0.50854049    -0.52020
C942        C  0.02728699  0.91763315  0.48818703     0.73740
Zr943      Zr  0.00496116  0.83236804  0.45613821     2.54710
O944        O  0.01660483  0.87665694  0.41184747    -0.79470
O945        O  0.46597994  0.87339607  0.45796879    -0.92890
Zr946      Zr  0.06966886  0.76574084  0.45721616     2.64680
O947        O  0.07685684  0.81466081  0.41299291    -0.97840
O948        O  0.11117983  0.73169741  0.45731646    -0.79900
O949        O  0.02671814  0.77404331  0.44053304    -0.83260
O950        O  0.04794866  0.82622642  0.47042371    -2.17970
O951        O  0.48934404  0.81200296  0.54450649    -0.66650
O952        O  0.02700858  0.81125930  0.56451569    -0.51210
C953        C  0.00291046  0.80768487  0.56656190     0.72120
O954        O  0.04214150  0.61777030  0.51678822    -0.59560
O955        O  0.01265248  0.62873134  0.48088133    -0.51530
C956        C  0.02683409  0.60360623  0.49915981     0.73920
O957        O  0.07457712  0.72678074  0.56861154    -0.70950
O958        O  0.08487951  0.79508726  0.54639818    -0.49630
C959        C  0.08422053  0.76664995  0.56848731     0.75310
O960        O  0.45531147  0.69695933  0.50961376    -0.66280
O961        O  0.46740444  0.66979547  0.47247378    -0.53480
C962        C  0.45213022  0.67249553  0.49148522     0.73690
Zr963      Zr  0.48595670  0.74729848  0.52446844     2.77540
O964        O  0.47945088  0.69550440  0.56796003    -0.97030
O965        O  0.44286984  0.77012985  0.53034624    -0.77850
Zr966      Zr  0.05409269  0.68943376  0.52986802     2.70070
O967        O  0.04620376  0.63849423  0.57310852    -0.79100
O968        O  0.09650706  0.65881386  0.53010898    -0.98180
Zr969      Zr  0.00728435  0.70681180  0.46269174     2.21500
Zr970      Zr  0.04742970  0.81297935  0.51953790     2.11130
O971        O  0.02873025  0.74397592  0.54202522    -2.46870
O972        O  0.01067799  0.69135860  0.51223171    -0.78890
O973        O  0.00416237  0.81767650  0.50460097    -0.71090
O974        O  0.05068564  0.69965922  0.48017370    -2.32040
O975        O  0.48432433  0.76451567  0.47610899    -2.28250
O976        O  0.07174401  0.75589814  0.50630509    -0.72850
H977        H  0.05638906  0.85407403  0.46333615     0.79150
H978        H  0.05867222  0.67439906  0.47501288     0.80240
H979        H  0.02922996  0.73744121  0.56190596     0.82460
H980        H  0.46661357  0.76474173  0.47038435     0.80070
H981        H  0.11081775  0.70490840  0.47233740     0.43100
H982        H  0.10796000  0.68378015  0.53244196     0.42080
H983        H  0.02753384  0.63827676  0.57418948     0.41750
H984        H  0.49470796  0.69716945  0.58000447     0.39690
H985        H  0.43846136  0.79194025  0.51314861     0.42820
H986        H  0.45327904  0.85027288  0.46482093     0.37600
H987        H  0.01748935  0.85486599  0.39950891     0.43720
H988        H  0.06922781  0.84356910  0.41442182     0.40130
H989        H  0.46565596  0.70868756  0.57661018     0.45050
H990        H  0.46050132  0.88519420  0.43847903     0.43780
H991        H  0.09534851  0.82020376  0.41328524     0.43910
H992        H  0.09832247  0.63726264  0.54791463     0.44270
C993        C  0.02532139  0.55474548  0.49904025    -0.04650
C994        C  0.01879444  0.53979768  0.47403595    -0.01760
C995        C  0.01772666  0.49394704  0.47358703     0.03230
C996        C  0.02264251  0.46202621  0.49806334    -0.04650
C997        C  0.02799777  0.47661911  0.52321281    -0.01750
C998        C  0.02970090  0.52253250  0.52364252     0.03220
C999        C  0.01333908  0.57077979  0.44808241     0.37870
C1000       C  0.03135240  0.44457463  0.54909309     0.37860
C1001       C  0.03540478  0.53580408  0.54986883     0.36290
C1002       C  0.01232705  0.48018549  0.44736192     0.36290
N1003       N  0.04012096  0.54501353  0.57113459    -0.38530
N1004       N  0.50789221  0.46994893  0.42633673    -0.38530
N1005       N  0.03426518  0.41948668  0.56983739    -0.37980
N1006       N  0.50839061  0.59410024  0.42707120    -0.37980
C1007       C  0.02783098  0.96575117  0.48995769    -0.04650
C1008       C  0.00619909  0.99272942  0.48213006    -0.01760
C1009       C  0.00559733  0.03635843  0.48735705     0.03230
C1010       C  0.02667209  0.05399893  0.50066664    -0.04650
C1011       C  0.04830529  0.02681348  0.50864006    -0.01750
C1012       C  0.04923556  0.98373867  0.50238603     0.03220
C1013       C  0.98427363  0.97646172  0.46832529     0.37870
C1014       C  0.07020463  0.04334288  0.52235323     0.37860
C1015       C  0.07303634  0.95937367  0.50719998     0.36290
C1016       C  0.98302472  0.06284199  0.47811743     0.36290
N1017       N  0.09227794  0.94085489  0.51106387    -0.38530
N1018       N  0.46478537  0.08252840  0.46961629    -0.38530
N1019       N  0.08772977  0.05581879  0.53353735    -0.37980
N1020       N  0.96645111  0.96548497  0.45693340    -0.37980
C1021       C  0.17430584  0.41204869  0.49601888    -0.04650
C1022       C  0.17298239  0.37218523  0.48549022    -0.01760
C1023       C  0.15115468  0.34536209  0.48882380     0.03230
C1024       C  0.12917547  0.36035722  0.49979876    -0.04650
C1025       C  0.13013069  0.40086677  0.50945554    -0.01750
C1026       C  0.15270202  0.42569793  0.50848825     0.03220
C1027       C  0.19406112  0.35761699  0.47149888     0.37870
C1028       C  0.10779329  0.41824210  0.51992048     0.37860
C1029       C  0.15283923  0.46562348  0.52031042     0.36290
C1030       C  0.15218226  0.30132254  0.48193125     0.36290
N1031       N  0.15185521  0.49649232  0.53053230    -0.38530
N1032       N  0.15385916  0.26640033  0.47640936    -0.38530
N1033       N  0.09025550  0.43260915  0.52835587    -0.37980
N1034       N  0.21055631  0.34576993  0.46006665    -0.37980
C1035       C  0.37985322  0.61253918  0.50323660    -0.04650
C1036       C  0.38431469  0.64371749  0.47878198    -0.01760
C1037       C  0.40893668  0.65923664  0.47327635     0.03230
C1038       C  0.42869355  0.64650413  0.49320546    -0.04650
C1039       C  0.42445294  0.61445297  0.51737709    -0.01750
C1040       C  0.40003273  0.59679160  0.52217705     0.03220
C1041       C  0.36348545  0.65974872  0.45920604     0.37870
C1042       C  0.44552185  0.59837361  0.53655333     0.37860
C1043       C  0.39589804  0.56141087  0.54589953     0.36290
C1044       C  0.41397669  0.68665253  0.44665825     0.36290
N1045       N  0.39282521  0.53293239  0.56474311    -0.38530
N1046       N  0.41754274  0.70698803  0.42482915    -0.38530
N1047       N  0.46244867  0.58537242  0.55160087    -0.37980
N1048       N  0.34687735  0.67293751  0.44375256    -0.37980
C1049       C  0.12932722  0.86276144  0.49097253    -0.04650
C1050       C  0.14652247  0.85397836  0.51409025    -0.01760
C1051       C  0.16904602  0.87891437  0.51423269     0.03230
C1052       C  0.17551614  0.90976038  0.49029996    -0.04650
C1053       C  0.15962840  0.91457005  0.46615775    -0.01750
C1054       C  0.13594293  0.89319876  0.46700516     0.03220
C1055       C  0.14255351  0.81646815  0.53649766     0.37870
C1056       C  0.16794648  0.93908729  0.43994929     0.37860
C1057       C  0.11829296  0.90289872  0.44320413     0.36290
C1058       C  0.18663210  0.86997641  0.53813459     0.36290
N1059       N  0.10422199  0.91109701  0.42426996    -0.38530
N1060       N  0.20073658  0.86253905  0.55707962    -0.38530
N1061       N  0.17415521  0.95663004  0.41834771    -0.37980
N1062       N  0.14060701  0.78579731  0.55423856    -0.37980
C1063       C  0.27748372  0.81220656  0.50180216    -0.04650
C1064       C  0.30039115  0.78768754  0.50715522    -0.01760
C1065       C  0.30083449  0.74241839  0.50497530     0.03230
C1066       C  0.27833952  0.72111200  0.49785473    -0.04650
C1067       C  0.25534764  0.74494770  0.49356033    -0.01750
C1068       C  0.25495052  0.79035831  0.49513048     0.03220
C1069       C  0.32393922  0.80927046  0.51339750     0.37870
C1070       C  0.23171681  0.72237585  0.48877287     0.37860
C1071       C  0.23099718  0.81393899  0.48996936     0.36290
C1072       C  0.32473783  0.71837782  0.50928113     0.36290
N1073       N  0.21150498  0.83134485  0.48532950    -0.38530
N1074       N  0.34397167  0.69983435  0.51292386    -0.38530
N1075       N  0.21269145  0.70486178  0.48521915    -0.37980
N1076       N  0.34286364  0.82596562  0.51839545    -0.37980
C1077       C  0.27242454  0.22387722  0.49233087    -0.04650
C1078       C  0.29458124  0.25024369  0.48891359    -0.01760
C1079       C  0.29476668  0.29382984  0.49427754     0.03230
C1080       C  0.27324643  0.31050421  0.50473392    -0.04650
C1081       C  0.25134218  0.28372538  0.50912296    -0.01750
C1082       C  0.25056675  0.24127420  0.50178565     0.03220
C1083       C  0.31725478  0.23287106  0.47954448     0.37870
C1084       C  0.23008895  0.29911307  0.52228431     0.37860
C1085       C  0.22727164  0.21571361  0.50369854     0.36290
C1086       C  0.31697418  0.32194316  0.48839883     0.36290
N1087       N  0.20852191  0.19574209  0.50450405    -0.38530
N1088       N  0.33465194  0.34430177  0.48354231    -0.38530
N1089       N  0.21331000  0.31104816  0.53325210    -0.37980
N1090       N  0.33568413  0.21966855  0.47232214    -0.37980
C1091       C  0.38076037  0.11153486  0.48838451    -0.04650
C1092       C  0.38626929  0.15024970  0.46893682    -0.01760
C1093       C  0.40921256  0.17227097  0.47166747     0.03230
C1094       C  0.42826760  0.15128634  0.49039500    -0.04650
C1095       C  0.42350049  0.11082848  0.50876069    -0.01750
C1096       C  0.39941590  0.09124357  0.50810751     0.03220
C1097       C  0.36901571  0.16622558  0.44547115     0.37870
C1098       C  0.44316210  0.08998856  0.52848356     0.37860
C1099       C  0.39419605  0.04959002  0.52693775     0.36290
C1100       C  0.41200516  0.21859598  0.45803806     0.36290
N1101       N  0.39035819  0.01619584  0.54192867    -0.38530
N1102       N  0.41402195  0.25614455  0.44836706    -0.38530
N1103       N  0.45888128  0.07331377  0.54411890    -0.37980
N1104       N  0.35556544  0.17865204  0.42640712    -0.37980
C1105       C  0.20863740  0.00128278  0.62694016    -0.04650
C1106       C  0.23510242  0.99687608  0.63074455    -0.01760
C1107       C  0.25123525  0.02176744  0.61121821     0.03230
C1108       C  0.24126647  0.05478927  0.58903771    -0.04650
C1109       C  0.21491598  0.06349122  0.58803619    -0.01750
C1110       C  0.19865094  0.03512972  0.60542932     0.03220
C1111       C  0.24589640  0.96922036  0.65585995     0.37870
C1112       C  0.20436366  0.10259831  0.56954274     0.37860
C1113       C  0.17141112  0.04177727  0.60166094     0.36290
C1114       C  0.27766950  0.01073712  0.61414456     0.36290
N1115       N  0.14973525  0.04714066  0.59852969    -0.38530
N1116       N  0.29821608  0.99811272  0.61844766    -0.38530
N1117       N  0.19558231  0.13383375  0.55519896    -0.37980
N1118       N  0.25476281  0.94840285  0.67614017    -0.37980
C1119       C  0.10803714  0.83351686  0.63703437    -0.04650
C1120       C  0.08694817  0.84781106  0.61929363    -0.01760
C1121       C  0.08178329  0.82862375  0.59606441     0.03230
C1122       C  0.09197268  0.78629887  0.59378973    -0.04650
C1123       C  0.11137206  0.76867930  0.61348322    -0.01750
C1124       C  0.12081930  0.79404223  0.63335149     0.03220
C1125       C  0.07156010  0.88552318  0.62283894     0.37870
C1126       C  0.12309403  0.72670111  0.61179035     0.37860
C1127       C  0.14404913  0.77985689  0.64919517     0.36290
C1128       C  0.06883749  0.85786588  0.57336060     0.36290
N1129       N  0.16287499  0.76855015  0.66135236    -0.38530
N1130       N  0.05892545  0.88531684  0.55704614    -0.38530
N1131       N  0.13247916  0.69312617  0.61046253    -0.37980
N1132       N  0.05884349  0.91505018  0.62528188    -0.37980
C1133       C  0.23619834  0.54875916  0.60024651    -0.04650
C1134       C  0.24966402  0.53171021  0.62538510    -0.01760
C1135       C  0.23860307  0.49916848  0.64600452     0.03230
C1136       C  0.21330207  0.48459393  0.64240965    -0.04650
C1137       C  0.19887060  0.50600443  0.61884182    -0.01750
C1138       C  0.20980797  0.53961910  0.59886941     0.03220
C1139       C  0.27270899  0.55331522  0.63246152     0.37870
C1140       C  0.17227920  0.49548362  0.61535213     0.37860
C1141       C  0.19324024  0.56681638  0.57806761     0.36290
C1142       C  0.25315933  0.48193364  0.67149710     0.36290
N1143       N  0.17960690  0.58885376  0.56213133    -0.38530
N1144       N  0.26476315  0.46865752  0.69185750    -0.38530
N1145       N  0.15095514  0.48864167  0.61172521    -0.37980
N1146       N  0.29013847  0.57138728  0.64000657    -0.37980
C1147       C  0.09022207  0.27076884  0.60815157    -0.04650
C1148       C  0.07853865  0.26870503  0.63369120    -0.01760
C1149       C  0.08553449  0.29918174  0.65153966     0.03230
C1150       C  0.10271924  0.33498509  0.64308894    -0.04650
C1151       C  0.11475774  0.33583393  0.61794656    -0.01750
C1152       C  0.11009466  0.30223460  0.60215210     0.03220
C1153       C  0.05879705  0.23595820  0.64118186     0.37870
C1154       C  0.13065127  0.37335941  0.60678175     0.37860
C1155       C  0.12485953  0.30173301  0.57817049     0.36290
C1156       C  0.07500804  0.29368306  0.67854775     0.36290
N1157       N  0.13700832  0.30087233  0.55938722    -0.38530
N1158       N  0.06681145  0.28910923  0.70025677    -0.38530
N1159       N  0.14289269  0.40327736  0.59675861    -0.37980
N1160       N  0.04305049  0.20965692  0.64710469    -0.37980
C1161       C  0.15261552  0.64853736  0.73397583    -0.04650
C1162       C  0.13481901  0.67513185  0.71589763    -0.01760
C1163       C  0.13298721  0.72096967  0.71597024     0.03230
C1164       C  0.15123285  0.74146366  0.73103381    -0.04650
C1165       C  0.16981215  0.71525666  0.74816662    -0.01750
C1166       C  0.17007965  0.66854570  0.75019503     0.03220
C1167       C  0.11799424  0.65518031  0.69765811     0.37870
C1168       C  0.18812926  0.73614900  0.76428933     0.37860
C1169       C  0.18842702  0.64115039  0.76864717     0.36290
C1170       C  0.11118636  0.74611773  0.70243228     0.36290
N1171       N  0.20303641  0.61927101  0.78340971    -0.38530
N1172       N  0.09341520  0.76563547  0.69222141    -0.38530
N1173       N  0.20278760  0.75254964  0.77726344    -0.37980
N1174       N  0.10464601  0.63934693  0.68304261    -0.37980
C1175       C  0.13041566  0.24128060  0.73571890    -0.04650
C1176       C  0.12123689  0.20988302  0.75829736    -0.01760
C1177       C  0.12105013  0.16356807  0.75799854     0.03230
C1178       C  0.13070355  0.14731959  0.73545077    -0.04650
C1179       C  0.13755800  0.17944292  0.71177823    -0.01750
C1180       C  0.13776627  0.22541974  0.71211306     0.03220
C1181       C  0.11232159  0.22438847  0.78247425     0.37870
C1182       C  0.14382928  0.16671275  0.68600081     0.37860
C1183       C  0.14595727  0.25576810  0.68748766     0.36290
C1184       C  0.10967738  0.13351597  0.78070122     0.36290
N1185       N  0.15319466  0.27809782  0.66761917    -0.38530
N1186       N  0.10005346  0.11062527  0.79886396    -0.38530
N1187       N  0.14875155  0.15807651  0.66508363    -0.37980
N1188       N  0.10496448  0.23517736  0.80187097    -0.37980
C1189       C  0.35840913  0.58263382  0.64601950    -0.04650
C1190       C  0.34176862  0.60314338  0.62449627    -0.01760
C1191       C  0.33335067  0.58034694  0.60364297     0.03230
C1192       C  0.33798095  0.53378418  0.60519536    -0.04650
C1193       C  0.35493076  0.51292014  0.62680900    -0.01750
C1194       C  0.36632957  0.53796748  0.64591752     0.03220
C1195       C  0.33427869  0.64970799  0.62222533     0.37870
C1196       C  0.36253903  0.46717012  0.62781768     0.37860
C1197       C  0.38767096  0.51887658  0.66356339     0.36290
C1198       C  0.32124260  0.60838814  0.57995971     0.36290
N1199       N  0.40527677  0.50376500  0.67680168    -0.38530
N1200       N  0.31269030  0.63626677  0.56295565    -0.38530
N1201       N  0.36869723  0.43062699  0.62863421    -0.37980
N1202       N  0.32771810  0.68640261  0.61969572    -0.37980
C1203       C  0.46198908  0.73208218  0.63455067    -0.04650
C1204       C  0.48846462  0.72862641  0.63484190    -0.01760
C1205       C  0.00258207  0.75601296  0.61434396     0.03230
C1206       C  0.49030118  0.78805548  0.59309411    -0.04650
C1207       C  0.46361776  0.79308515  0.59413632    -0.01750
C1208       C  0.44957001  0.76367023  0.61366403     0.03220
C1209       C  0.00118619  0.69498264  0.65575027     0.37870
C1210       C  0.45035548  0.82900722  0.57530096     0.37860
C1211       C  0.42211829  0.76449227  0.61136947     0.36290
C1212       C  0.02951698  0.74860166  0.61561524     0.36290
N1213       N  0.40024453  0.76462265  0.60868175    -0.38530
N1214       N  0.05061424  0.73875466  0.61922158    -0.38530
N1215       N  0.43973703  0.85762677  0.56034071    -0.37980
N1216       N  0.01169061  0.66786016  0.67188031    -0.37980
C1217       C  0.00079057  0.60300775  0.72879859    -0.04650
C1218       C  0.02377135  0.62513084  0.73361566    -0.01760
C1219       C  0.04706155  0.60261369  0.73489322     0.03230
C1220       C  0.04763512  0.55851108  0.73019168    -0.04650
C1221       C  0.02461140  0.53608295  0.72620440    -0.01750
C1222       C  0.00141908  0.55855439  0.72467832     0.03220
C1223       C  0.02379513  0.67182900  0.73593041     0.37870
C1224       C  0.02427377  0.48801471  0.72786010     0.37860
C1225       C  0.47822832  0.53469341  0.72000162     0.36290
C1226       C  0.06998571  0.62396610  0.74306639     0.36290
N1227       N  0.45994240  0.51548509  0.71586311    -0.38530
N1228       N  0.08781631  0.64108034  0.75064779    -0.38530
N1229       N  0.02341536  0.44958632  0.73009798    -0.37980
N1230       N  0.02421349  0.70919458  0.73740047    -0.37980
C1231       C  0.29596878  0.80449873  0.72887032    -0.04650
C1232       C  0.28217070  0.81883085  0.70336806    -0.01760
C1233       C  0.25755855  0.83711314  0.70256123     0.03230
C1234       C  0.24649442  0.84301509  0.72722713    -0.04650
C1235       C  0.26007690  0.82755805  0.75272335    -0.01750
C1236       C  0.28486636  0.81030473  0.75343669     0.03220
C1237       C  0.29363002  0.81720953  0.67744093     0.37870
C1238       C  0.24806633  0.82547086  0.77879403     0.37860
C1239       C  0.29856641  0.79874003  0.77993913     0.36290
C1240       C  0.24382556  0.84942348  0.67603017     0.36290
N1241       N  0.30876224  0.79122803  0.80154585    -0.38530
N1242       N  0.23297273  0.85887267  0.65481541    -0.38530
N1243       N  0.23912139  0.82200750  0.80005367    -0.37980
N1244       N  0.30226062  0.81676831  0.65639446    -0.37980
C1245       C  0.35412305  0.09559016  0.63612004    -0.04650
C1246       C  0.34602126  0.11926691  0.60998140    -0.01760
C1247       C  0.34020507  0.09686155  0.58796744     0.03230
C1248       C  0.34173784  0.04891628  0.59139740    -0.04650
C1249       C  0.35046507  0.02534212  0.61773937    -0.01750
C1250       C  0.35561506  0.04824613  0.64002302     0.03220
C1251       C  0.34401420  0.16774669  0.60533842     0.37870
C1252       C  0.35429302  0.97746190  0.62203671     0.37860
C1253       C  0.35967504  0.02232684  0.66757775     0.36290
C1254       C  0.33362912  0.12573210  0.56170207     0.36290
N1255       N  0.36154013  0.00026997  0.68943385    -0.38530
N1256       N  0.32941867  0.15218007  0.54183394    -0.38530
N1257       N  0.35737164  0.93922750  0.62553060    -0.37980
N1258       N  0.34214581  0.20625962  0.60108677    -0.37980
C1259       C  0.45968601  0.25452154  0.63582831    -0.04650
C1260       C  0.48281789  0.27791594  0.63889007    -0.01760
C1261       C  0.49417113  0.30356286  0.61556463     0.03230
C1262       C  0.48140851  0.30990939  0.58948837    -0.04650
C1263       C  0.45561289  0.29702366  0.58840696    -0.01750
C1264       C  0.44563670  0.26608100  0.61044611     0.03220
C1265       C  0.49397935  0.27974830  0.66594735     0.37870
C1266       C  0.43870939  0.31903335  0.56599328     0.37860
C1267       C  0.42030721  0.24855075  0.60728476     0.36290
C1268       C  0.01780567  0.32674469  0.61891027     0.36290
N1269       N  0.40014841  0.23454885  0.60446121    -0.38530
N1270       N  0.03639247  0.34598737  0.62169152    -0.38530
N1271       N  0.42506610  0.33738051  0.54849548    -0.37980
N1272       N  0.50252679  0.28433935  0.68716077    -0.37980
C1273       C  0.49525102  0.09384572  0.72668939    -0.04650
C1274       C  0.01840247  0.11507353  0.71905307    -0.01760
C1275       C  0.04036403  0.08958151  0.71835891     0.03230
C1276       C  0.03967525  0.04269234  0.72669100    -0.04650
C1277       C  0.01687628  0.02142635  0.73569036    -0.01750
C1278       C  0.49488223  0.04709214  0.73634057     0.03220
C1279       C  0.02029192  0.16321372  0.71383056     0.37870
C1280       C  0.01629042  0.97331062  0.74508102     0.37860
C1281       C  0.47292877  0.02624324  0.75011207     0.36290
C1282       C  0.06349561  0.11171385  0.70827798     0.36290
N1283       N  0.45580906  0.00975746  0.76199329    -0.38530
N1284       N  0.08163349  0.12985660  0.69972660    -0.38530
N1285       N  0.01587149  0.93490187  0.75248664    -0.37980
N1286       N  0.52276239  0.20149332  0.71062824    -0.37980
C1287       C  0.39829232  0.99427801  0.73588143    -0.04650
C1288       C  0.41656731  0.97655360  0.72061790    -0.01760
C1289       C  0.41909555  0.93008716  0.72307288     0.03230
C1290       C  0.40150943  0.90054339  0.73782933    -0.04650
C1291       C  0.38316237  0.91800533  0.75303088    -0.01750
C1292       C  0.38189765  0.96415220  0.75250517     0.03220
C1293       C  0.43294012  0.00531561  0.70183690     0.37870
C1294       C  0.36497350  0.88911190  0.76927739     0.37860
C1295       C  0.36245974  0.97986467  0.76824293     0.36290
C1296       C  0.44107641  0.91320328  0.71180152     0.36290
N1297       N  0.34692933  0.99149335  0.78103601    -0.38530
N1298       N  0.45920244  0.90129662  0.70311801    -0.38530
N1299       N  0.35057484  0.86654249  0.78254351    -0.37980
N1300       N  0.44592201  0.02769905  0.68656916    -0.37980
C1301       C  0.39451752  0.40032566  0.73971720    -0.04650
C1302       C  0.37438088  0.42772486  0.72655904    -0.01760
C1303       C  0.37350612  0.47295395  0.72872020     0.03230
C1304       C  0.39357299  0.49140765  0.74256676    -0.04650
C1305       C  0.41322522  0.46378432  0.75655440    -0.01750
C1306       C  0.41358797  0.41807682  0.75532031     0.03220
C1307       C  0.35468016  0.40946911  0.71061673     0.37870
C1308       C  0.43272170  0.48234845  0.77260002     0.37860
C1309       C  0.43365165  0.38939885  0.76982757     0.36290
C1310       C  0.35214514  0.50066887  0.71644266     0.36290
N1311       N  0.44960569  0.36643842  0.78146241    -0.38530
N1312       N  0.33507560  0.52270305  0.70673209    -0.38530
N1313       N  0.44817899  0.49734174  0.78541569    -0.37980
N1314       N  0.33903672  0.39507843  0.69773552    -0.37980
C1315       C  0.24306785  0.33565583  0.73067743    -0.04650
C1316       C  0.25542846  0.33910274  0.70558160    -0.01760
C1317       C  0.28027911  0.32256283  0.70569936     0.03230
C1318       C  0.29304874  0.30267674  0.73092122    -0.04650
C1319       C  0.28098083  0.30130150  0.75599245    -0.01750
C1320       C  0.25570194  0.31516715  0.75570802     0.03220
C1321       C  0.24287238  0.35974950  0.67952077     0.37870
C1322       C  0.29433054  0.28692617  0.78245930     0.37860
C1323       C  0.24231446  0.30533137  0.78124449     0.36290
C1324       C  0.29314312  0.32843268  0.67986818     0.36290
N1325       N  0.23218736  0.29581114  0.80186328    -0.38530
N1326       N  0.30324686  0.33374265  0.65917105    -0.38530
N1327       N  0.30428487  0.27753749  0.80412171    -0.37980
N1328       N  0.23320677  0.37555855  0.65841367    -0.37980
C1329       C  0.46457163  0.66274986  0.88891692    -0.04650
C1330       C  0.43781711  0.65991738  0.88645002    -0.01760
C1331       C  0.42448428  0.68341333  0.86275469     0.03230
C1332       C  0.43649399  0.71768480  0.84413830    -0.04650
C1333       C  0.46177333  0.72889894  0.85115840    -0.01750
C1334       C  0.47615387  0.70039658  0.87238527     0.03220
C1335       C  0.42337865  0.63477358  0.90868620     0.37870
C1336       C  0.47342290  0.76891367  0.83576477     0.37860
C1337       C  0.00262381  0.71094645  0.87713997     0.36290
C1338       C  0.39968438  0.66671227  0.85681243     0.36290
N1339       N  0.02369333  0.71974204  0.88081214    -0.38530
N1340       N  0.38050263  0.64927027  0.85424814    -0.38530
N1341       N  0.98272381  0.80083245  0.82354649    -0.37980
N1342       N  0.41138023  0.61619565  0.92643101    -0.37980
C1343       C  0.07170600  0.46111760  0.83431315    -0.04650
C1344       C  0.07823374  0.43898593  0.86136232    -0.01760
C1345       C  0.07946339  0.46243679  0.88349807     0.03230
C1346       C  0.06774239  0.50540249  0.88103843    -0.04650
C1347       C  0.05639068  0.52402959  0.85473712    -0.01750
C1348       C  0.05868573  0.50237072  0.83185925     0.03220
C1349       C  0.07920113  0.39069552  0.86750344     0.37870
C1350       C  0.04250311  0.56579961  0.85062849     0.37860
C1351       C  0.04463230  0.51986956  0.80644461     0.36290
C1352       C  0.09452638  0.44212460  0.90789652     0.36290
N1353       N  0.03174210  0.53398525  0.78729607    -0.38530
N1354       N  0.10730642  0.42550055  0.92668390    -0.38530
N1355       N  0.03138769  0.59910632  0.84717133    -0.37980
N1356       N  0.07942545  0.35201926  0.87285077    -0.37980
C1357       C  0.46089461  0.10209733  0.86888567    -0.04650
C1358       C  0.43483075  0.09977418  0.86318400    -0.01760
C1359       C  0.42112731  0.13825380  0.84953806     0.03230
C1360       C  0.43387934  0.17874631  0.83827261    -0.04650
C1361       C  0.46054278  0.18008834  0.84364844    -0.01750
C1362       C  0.47389103  0.14136524  0.85696073     0.03220
C1363       C  0.42228532  0.05703144  0.87110058     0.37870
C1364       C  0.47452993  0.22158528  0.83606936     0.37860
C1365       C  0.00139909  0.14174308  0.85907721     0.36290
C1366       C  0.39405294  0.13608799  0.85138194     0.36290
N1367       N  0.02332685  0.14187124  0.86037339    -0.38530
N1368       N  0.37296050  0.12983652  0.85607202    -0.38530
N1369       N  0.48570768  0.25462305  0.83012456    -0.37980
N1370       N  0.41257409  0.02246997  0.87652116    -0.37980
C1371       C  0.08207631  0.93183508  0.83762747    -0.04650
C1372       C  0.06149366  0.90696861  0.85016837    -0.01760
C1373       C  0.04917767  0.92021714  0.87258286     0.03230
C1374       C  0.05757753  0.95824694  0.88328401    -0.04650
C1375       C  0.07895977  0.98175164  0.87118644    -0.01750
C1376       C  0.09033101  0.96970105  0.84843703     0.03220
C1377       C  0.05194241  0.86949051  0.83884480     0.37870
C1378       C  0.08945841  0.02035739  0.88089371     0.37860
C1379       C  0.10952169  0.99977354  0.83489806     0.36290
C1380       C  0.02791230  0.89432103  0.88455066     0.36290
N1381       N  0.12416692  0.02538340  0.82449393    -0.38530
N1382       N  0.01087731  0.87351131  0.89393395    -0.38530
N1383       N  0.09903596  0.05082396  0.88776469    -0.37980
N1384       N  0.04430157  0.83962107  0.82970319    -0.37980
C1385       C  0.01381410  0.82891352  0.96930250    -0.04650
C1386       C  0.03499854  0.80095405  0.97945336    -0.01760
C1387       C  0.03504714  0.75530545  0.97739709     0.03230
C1388       C  0.01429539  0.73658379  0.96476058    -0.04650
C1389       C  0.99344277  0.76417387  0.95397216    -0.01750
C1390       C  0.99311811  0.80987363  0.95616842     0.03220
C1391       C  0.05716022  0.81849887  0.99205336     0.37870
C1392       C  0.47187835  0.74522948  0.94109528     0.37860
C1393       C  0.97076787  0.83637508  0.94590975     0.36290
C1394       C  0.05612532  0.72679093  0.98962078     0.36290
N1395       N  0.45294251  0.85747327  0.93748435    -0.38530
N1396       N  0.07283994  0.70407670  0.99958676    -0.38530
N1397       N  0.45454877  0.73039761  0.93090554    -0.37980
N1398       N  0.07510053  0.83137235  0.00229448    -0.37980
C1399       C  0.01374582  0.32037717  0.00946063    -0.04650
C1400       C  0.99977472  0.30713619  0.98752091    -0.01760
C1401       C  0.99804341  0.26176373  0.98590680     0.03230
C1402       C  0.01027515  0.22840757  0.00663483    -0.04650
C1403       C  0.02117420  0.24195581  0.03066368    -0.01750
C1404       C  0.02310486  0.28782431  0.03180204     0.03220
C1405       C  0.98662257  0.34058760  0.96661997     0.37870
C1406       C  0.03032406  0.20947231  0.05456180     0.37860
C1407       C  0.03530797  0.30159842  0.05565789     0.36290
C1408       C  0.98326279  0.25073151  0.96265267     0.36290
N1409       N  0.04489979  0.31263487  0.07473499    -0.38530
N1410       N  0.97143209  0.24300814  0.94387476    -0.38530
N1411       N  0.03744349  0.18382877  0.07385110    -0.37980
N1412       N  0.97605537  0.36712354  0.95009344    -0.37980
C1413       C  0.30665312  0.72555574  0.88365467    -0.04650
C1414       C  0.33229051  0.73752292  0.87860035    -0.01760
C1415       C  0.34322888  0.73116127  0.85439597     0.03230
C1416       C  0.33160358  0.70317597  0.83767940    -0.04650
C1417       C  0.30698890  0.68707208  0.84381236    -0.01750
C1418       C  0.29412359  0.69962241  0.86590135     0.03220
C1419       C  0.34840591  0.75694861  0.89778233     0.37870
C1420       C  0.29397315  0.66147731  0.82566303     0.37860
C1421       C  0.26789795  0.68633276  0.86955151     0.36290
C1422       C  0.36532217  0.75836902  0.84603311     0.36290
N1423       N  0.24693216  0.67567089  0.87222383    -0.38530
N1424       N  0.38193174  0.78317490  0.84093933    -0.38530
N1425       N  0.28355005  0.64133887  0.81102568    -0.37980
N1426       N  0.36211214  0.77257041  0.91214358    -0.37980
C1427       C  0.17118741  0.91157367  0.84326309    -0.04650
C1428       C  0.16882251  0.92065258  0.86975150    -0.01760
C1429       C  0.17493518  0.88721005  0.89333404     0.03230
C1430       C  0.18843939  0.84775540  0.89092131    -0.04650
C1431       C  0.18963136  0.83789175  0.86449751    -0.01750
C1432       C  0.18002237  0.86855962  0.84122458     0.03220
C1433       C  0.16178899  0.96493380  0.87313860     0.37870
C1434       C  0.19981899  0.79533014  0.86097334     0.37860
C1435       C  0.17940273  0.85372840  0.81548518     0.36290
C1436       C  0.16462511  0.89213109  0.91921814     0.36290
N1437       N  0.18004464  0.83563040  0.79721407    -0.38530
N1438       N  0.15500403  0.89635721  0.93912121    -0.38530
N1439       N  0.20773535  0.76150008  0.85791255    -0.37980
N1440       N  0.15694605  0.00027630  0.87656069    -0.37980
C1441       C  0.16488263  0.68297650  0.96440737    -0.04650
C1442       C  0.14594235  0.69711393  0.94366521    -0.01760
C1443       C  0.12200185  0.67603114  0.94518422     0.03230
C1444       C  0.11675010  0.64154628  0.96816034    -0.04650
C1445       C  0.13623018  0.62902588  0.98937416    -0.01750
C1446       C  0.16043880  0.64728738  0.98618946     0.03220
C1447       C  0.15072330  0.73400816  0.92112621     0.37870
C1448       C  0.13192771  0.60042263  0.01600299     0.37860
C1449       C  0.18102712  0.62937813  0.00581332     0.36290
C1450       C  0.10258107  0.69238665  0.92395653     0.36290
N1451       N  0.19728850  0.61426478  0.02121204    -0.38530
N1452       N  0.08716806  0.70580358  0.90702112    -0.38530
N1453       N  0.12933568  0.57907934  0.03781584    -0.37980
N1454       N  0.15385461  0.76324585  0.90277696    -0.37980
C1455       C  0.35632786  0.90864873  0.98604443    -0.04650
C1456       C  0.37776076  0.88778125  0.00104592    -0.01760
C1457       C  0.40261356  0.90043698  0.99292776     0.03230
C1458       C  0.40675535  0.93738484  0.97118343    -0.04650
C1459       C  0.38528801  0.96133220  0.95800108    -0.01750
C1460       C  0.36037448  0.94585497  0.96437148     0.03220
C1461       C  0.37432115  0.85506814  0.02595648     0.37870
C1462       C  0.38865928  0.00459056  0.94020442     0.37860
C1463       C  0.33875967  0.97011268  0.94970408     0.36290
C1464       C  0.42421497  0.87712479  0.00833749     0.36290
N1465       N  0.32149602  0.98942455  0.93802792    -0.38530
N1466       N  0.44144283  0.85865861  0.02064659    -0.38530
N1467       N  0.39098758  0.03989169  0.92677677    -0.37980
N1468       N  0.37149015  0.83037244  0.04651053    -0.37980
C1469       C  0.30624952  0.22232169  0.88539926    -0.04650
C1470       C  0.33175792  0.23504221  0.87930304    -0.01760
C1471       C  0.34391448  0.22220369  0.85716440     0.03230
C1472       C  0.33158350  0.19555222  0.83996710    -0.04650
C1473       C  0.30647708  0.18178281  0.84602966    -0.01750
C1474       C  0.29390104  0.19493203  0.86835621     0.03220
C1475       C  0.34622296  0.26364286  0.89466029     0.37870
C1476       C  0.29288027  0.15689459  0.82791667     0.37860
C1477       C  0.26780600  0.18145471  0.87269971     0.36290
C1478       C  0.36926443  0.23971465  0.85179276     0.36290
N1479       N  0.24691223  0.17075021  0.87596683    -0.38530
N1480       N  0.38898915  0.25648349  0.84957024    -0.38530
N1481       N  0.28201166  0.13724744  0.81330991    -0.37980
N1482       N  0.35837355  0.28682631  0.90592462    -0.37980
C1483       C  0.20260849  0.35871887  0.88553110    -0.04650
C1484       C  0.17665896  0.36948467  0.88254625    -0.01760
C1485       C  0.16745200  0.40293100  0.86041789     0.03230
C1486       C  0.18371143  0.43431831  0.84483150    -0.04650
C1487       C  0.21025710  0.42680783  0.85064155    -0.01750
C1488       C  0.21929125  0.38676703  0.86834377     0.03220
C1489       C  0.15891636  0.34494194  0.90156794     0.37870
C1490       C  0.22858667  0.45946405  0.83821311     0.37860
C1491       C  0.24565196  0.37415032  0.86821655     0.36290
C1492       C  0.14257609  0.39625029  0.84997314     0.36290
N1493       N  0.26662504  0.36405669  0.86735340    -0.38530
N1494       N  0.12354377  0.38568427  0.84122640    -0.38530
N1495       N  0.24331928  0.48558902  0.82858970    -0.37980
N1496       N  0.14457133  0.32643004  0.91685582    -0.37980
C1497       C  0.16248272  0.17817758  0.98039256    -0.04650
C1498       C  0.14372101  0.18708501  0.95885461    -0.01760
C1499       C  0.11864170  0.17097983  0.96328238     0.03230
C1500       C  0.11200421  0.14502774  0.98921486    -0.04650
C1501       C  0.13046797  0.13824399  0.01097448    -0.01750
C1502       C  0.15577060  0.15196800  0.00618067     0.03220
C1503       C  0.15021115  0.21258509  0.93210418     0.37870
C1504       C  0.12302644  0.12032328  0.03876309     0.37860
C1505       C  0.17524088  0.13711866  0.02760750     0.36290
C1506       C  0.09909757  0.18427669  0.94174813     0.36290
N1507       N  0.19069394  0.12411500  0.04456898    -0.38530
N1508       N  0.08358744  0.19613948  0.92464226    -0.38530
N1509       N  0.11665996  0.10839346  0.06109109    -0.37980
N1510       N  0.15551969  0.23219578  0.91058911    -0.37980
C1511       C  0.26363779  0.58489386  0.98511583    -0.04650
C1512       C  0.24071008  0.56344914  0.97968102    -0.01760
C1513       C  0.23790289  0.51698110  0.98924219     0.03230
C1514       C  0.25855106  0.49051163  0.00245598    -0.04650
C1515       C  0.28126331  0.51196272  0.00848213    -0.01750
C1516       C  0.28416535  0.55838136  0.99887078     0.03220
C1517       C  0.22010033  0.58846929  0.96352597     0.37870
C1518       C  0.30176421  0.48654721  0.02468138     0.37860
C1519       C  0.30899289  0.57826991  0.00166350     0.36290
C1520       C  0.21318740  0.49667956  0.98668752     0.36290
N1521       N  0.32888364  0.59382461  0.00364150    -0.38530
N1522       N  0.19328665  0.48103653  0.98502530    -0.38530
N1523       N  0.31802435  0.46659779  0.03796780    -0.37980
N1524       N  0.20371544  0.60765219  0.95004155    -0.37980
C1525       C  0.26514980  0.08620086  0.98555205    -0.04650
C1526       C  0.28513253  0.05810227  0.99908935    -0.01760
C1527       C  0.28244477  0.01112444  0.00450137     0.03230
C1528       C  0.26004590  0.99129064  0.99583357    -0.04650
C1529       C  0.24025676  0.01950974  0.98194847    -0.01750
C1530       C  0.24294056  0.06635977  0.97653229     0.03220
C1531       C  0.30907727  0.07716127  0.00666588     0.37870
C1532       C  0.21627336  0.00148994  0.97376986     0.37860
C1533       C  0.22228224  0.09378787  0.96199320     0.36290
C1534       C  0.30321339  0.98345810  0.01840648     0.36290
N1535       N  0.20572404  0.11489015  0.95009873    -0.38530
N1536       N  0.31986075  0.96192708  0.02974241    -0.38530
N1537       N  0.19641841  0.99079968  0.96663734    -0.37980
N1538       N  0.32826105  0.09188453  0.01279287    -0.37980
C1539       C  0.36517577  0.38911397  0.00711976    -0.04650
C1540       C  0.36938072  0.43498208  0.99731642    -0.01760
C1541       C  0.39403427  0.45288304  0.99867101     0.03230
C1542       C  0.41533922  0.42435282  0.00665678    -0.04650
C1543       C  0.41104827  0.37853449  0.01730351    -0.01750
C1544       C  0.38600644  0.36124081  0.01804885     0.03220
C1545       C  0.34877747  0.46322595  0.98365132     0.37870
C1546       C  0.43234105  0.34875092  0.02624317     0.37860
C1547       C  0.38169837  0.31420712  0.02901871     0.36290
C1548       C  0.39726723  0.50105743  0.99243925     0.36290
N1549       N  0.37817486  0.27672397  0.03782595    -0.38530
N1550       N  0.39964837  0.53951098  0.98787880    -0.38530
N1551       N  0.44935613  0.32499081  0.03335573    -0.37980
N1552       N  0.33259744  0.48576315  0.97213195    -0.37980
C1553       C  0.19175714  0.70432647  0.13685388    -0.04650
C1554       C  0.21092966  0.68631792  0.12336957    -0.01760
C1555       C  0.22618639  0.71476090  0.10398120     0.03230
C1556       C  0.22358042  0.76211496  0.09855334    -0.04650
C1557       C  0.20412763  0.77990619  0.11147455    -0.01750
C1558       C  0.18761753  0.75163002  0.12882953     0.03220
C1559       C  0.21432529  0.63854825  0.12816568     0.37870
C1560       C  0.20024854  0.82807819  0.10568506     0.37860
C1561       C  0.16514973  0.77246860  0.13625017     0.36290
C1562       C  0.24479636  0.69477713  0.08974822     0.36290
N1563       N  0.14783458  0.79262304  0.14041824    -0.38530
N1564       N  0.25944922  0.67763336  0.07869484    -0.38530
N1565       N  0.19714997  0.86636986  0.10103213    -0.37980
N1566       N  0.21710162  0.60040976  0.13094033    -0.37980
C1567       C  0.08246957  0.53910086  0.14658891    -0.04650
C1568       C  0.09091995  0.49796930  0.14074253    -0.01760
C1569       C  0.07771539  0.47721057  0.12063163     0.03230
C1570       C  0.05509744  0.49569239  0.10635925    -0.04650
C1571       C  0.04519405  0.53373480  0.11447724    -0.01750
C1572       C  0.05903971  0.55620627  0.13315144     0.03220
C1573       C  0.11301762  0.47607222  0.15564900     0.37870
C1574       C  0.02049579  0.55056048  0.10383647     0.37860
C1575       C  0.04929025  0.59874551  0.13701326     0.36290
C1576       C  0.08722928  0.43580052  0.11482349     0.36290
N1577       N  0.04116145  0.63266500  0.13962165    -0.38530
N1578       N  0.09463707  0.40255772  0.11026673    -0.38530
N1579       N  0.00056231  0.56502617  0.09704666    -0.37980
N1580       N  0.13058241  0.45799905  0.16744010    -0.37980
C1581       C  0.21350179  0.55709384  0.38776870    -0.04650
C1582       C  0.18758928  0.54687662  0.38531436    -0.01760
C1583       C  0.17108447  0.57635767  0.36666649     0.03230
C1584       C  0.17944595  0.61897770  0.35267763    -0.04650
C1585       C  0.20544069  0.62917684  0.35626832    -0.01750
C1586       C  0.22245856  0.59659041  0.37071624     0.03220
C1587       C  0.17798260  0.50601524  0.40185882     0.37870
C1588       C  0.21489664  0.67378106  0.34551531     0.37860
C1589       C  0.24953273  0.60467135  0.36906274     0.36290
C1590       C  0.14640852  0.56048186  0.36038373     0.36290
N1591       N  0.27107048  0.61106945  0.36727941    -0.38530
N1592       N  0.12715969  0.54547958  0.35526584    -0.38530
N1593       N  0.22232750  0.70946434  0.33718029    -0.37980
N1594       N  0.17038336  0.47331375  0.41502710    -0.37980
C1595       C  0.06664129  0.60956556  0.35345370    -0.04650
C1596       C  0.05011044  0.64682142  0.34913408    -0.01760
C1597       C  0.04825818  0.67363606  0.36912615     0.03230
C1598       C  0.05771731  0.65831801  0.39632464    -0.04650
C1599       C  0.06957834  0.61571632  0.40271097    -0.01750
C1600       C  0.07436893  0.59173668  0.38129538     0.03220
C1601       C  0.03515522  0.65796442  0.32360517     0.37870
C1602       C  0.07705721  0.59685040  0.43116299     0.37860
C1603       C  0.08386655  0.54652034  0.38856599     0.36290
C1604       C  0.03912683  0.71915750  0.36087423     0.36290
N1605       N  0.09069004  0.50985428  0.39511399    -0.38530
N1606       N  0.03302751  0.75618719  0.35424418    -0.38530
N1607       N  0.08298316  0.58170108  0.45390018    -0.37980
N1608       N  0.02205382  0.66622681  0.30395452    -0.37980
C1609       C  0.19651759  0.18609565  0.13237530    -0.04650
C1610       C  0.22308128  0.18452514  0.13117240    -0.01760
C1611       C  0.23676337  0.21998012  0.11451030     0.03230
C1612       C  0.22415854  0.25894210  0.09917717    -0.04650
C1613       C  0.19738878  0.26045742  0.10161934    -0.01750
C1614       C  0.18383354  0.22311376  0.11556552     0.03220
C1615       C  0.23635085  0.14617961  0.14749408     0.37870
C1616       C  0.18344061  0.30156542  0.09104530     0.37860
C1617       C  0.15629050  0.22432482  0.11462341     0.36290
C1618       C  0.26385964  0.21595627  0.11512783     0.36290
N1619       N  0.13437034  0.22525381  0.11389124    -0.38530
N1620       N  0.28534817  0.20904551  0.11794133    -0.38530
N1621       N  0.17231431  0.33436409  0.08287030    -0.37980
N1622       N  0.24686689  0.11523050  0.16021611    -0.37980
C1623       C  0.07965292  0.99512792  0.09836859    -0.04650
C1624       C  0.10437262  0.01282013  0.09813720    -0.01760
C1625       C  0.11379007  0.03406564  0.11969642     0.03230
C1626       C  0.09829474  0.03825361  0.14192314    -0.04650
C1627       C  0.07485048  0.01475789  0.14376848    -0.01750
C1628       C  0.06647703  0.99147303  0.12274911     0.03220
C1629       C  0.12005408  0.00856392  0.07547054     0.37870
C1630       C  0.06016219  0.01210813  0.16809651     0.37860
C1631       C  0.04568185  0.96015446  0.12666813     0.36290
C1632       C  0.13906763  0.05304714  0.11814855     0.36290
N1633       N  0.02992641  0.93329290  0.12937696    -0.38530
N1634       N  0.15928180  0.06804076  0.11685302    -0.38530
N1635       N  0.04866295  0.01029452  0.18766695    -0.37980
N1636       N  0.13255789  0.00480443  0.05742692    -0.37980
C1637       C  0.13991383  0.92470602  0.24889066    -0.04650
C1638       C  0.15021910  0.89586881  0.27286341    -0.01760
C1639       C  0.14706057  0.84896028  0.27630599     0.03230
C1640       C  0.13246969  0.83096297  0.25652513    -0.04650
C1641       C  0.12093395  0.86007434  0.23360424    -0.01750
C1642       C  0.12567258  0.90618817  0.22921441     0.03220
C1643       C  0.16477171  0.91439302  0.29350642     0.37870
C1644       C  0.10320228  0.84278364  0.21492709     0.37860
C1645       C  0.11586355  0.93421992  0.20409308     0.36290
C1646       C  0.15934999  0.81929296  0.29964210     0.36290
N1647       N  0.10828288  0.95504980  0.18332593    -0.38530
N1648       N  0.16917369  0.79549231  0.31821973    -0.38530
N1649       N  0.08856158  0.82961919  0.20033795    -0.37980
N1650       N  0.17644959  0.92926156  0.30990192    -0.37980
C1651       C  0.13314984  0.42823210  0.23965623    -0.04650
C1652       C  0.11358051  0.39997450  0.25211169    -0.01760
C1653       C  0.11588242  0.35318326  0.25624564     0.03230
C1654       C  0.13741200  0.33393951  0.24732467    -0.04650
C1655       C  0.15715256  0.36186212  0.23563134    -0.01750
C1656       C  0.15464673  0.40852092  0.23098285     0.03220
C1657       C  0.09035513  0.41830903  0.25991376     0.37870
C1658       C  0.18104612  0.34311085  0.22996858     0.37860
C1659       C  0.17455004  0.43567303  0.21715097     0.36290
C1660       C  0.09577586  0.32524214  0.26956011     0.36290
N1661       N  0.19044868  0.45641765  0.20544200    -0.38530
N1662       N  0.07965904  0.30366245  0.28046021    -0.38530
N1663       N  0.20067133  0.33016059  0.22564757    -0.37980
N1664       N  0.07155669  0.43141711  0.26645972    -0.37980
C1665       C  0.17937571  0.12042924  0.35158131    -0.04650
C1666       C  0.20331387  0.10013656  0.34997612    -0.01760
C1667       C  0.20958212  0.05871147  0.36693304     0.03230
C1668       C  0.19811923  0.04573788  0.39208301    -0.04650
C1669       C  0.17557336  0.06815758  0.39612462    -0.01750
C1670       C  0.16580939  0.10436939  0.37563697     0.03220
C1671       C  0.22358736  0.12403374  0.33459062     0.37870
C1672       C  0.16388675  0.05653067  0.42262495     0.37860
C1673       C  0.14549036  0.13073769  0.38262429     0.36290
C1674       C  0.22981668  0.03165379  0.36007793     0.36290
N1675       N  0.13032350  0.15191282  0.39025094    -0.38530
N1676       N  0.24512392  0.00889878  0.35410574    -0.38530
N1677       N  0.15464531  0.04729236  0.44380171    -0.37980
N1678       N  0.24077591  0.14258331  0.32394361    -0.37980
C1679       C  0.06337253  0.16844196  0.39710568    -0.04650
C1680       C  0.06167673  0.12222546  0.39577731    -0.01760
C1681       C  0.07127618  0.10573228  0.37293252     0.03230
C1682       C  0.08345506  0.13486195  0.35149246    -0.04650
C1683       C  0.08595925  0.18069041  0.35395425    -0.01750
C1684       C  0.07489227  0.19732023  0.37530572     0.03220
C1685       C  0.05023079  0.09137795  0.41791611     0.37870
C1686       C  0.10190126  0.21145973  0.33589931     0.37860
C1687       C  0.07468956  0.24535106  0.37391480     0.36290
C1688       C  0.06828658  0.05912597  0.37136568     0.36290
N1689       N  0.07454087  0.28370378  0.37215331    -0.38530
N1690       N  0.06590317  0.02184557  0.37011920    -0.38530
N1691       N  0.11478934  0.23700561  0.32250548    -0.37980
N1692       N  0.04112704  0.06630023  0.43546815    -0.37980
C1693       C  0.34757185  0.80291749  0.14257823    -0.04650
C1694       C  0.32249446  0.78667056  0.14565968    -0.01760
C1695       C  0.31098747  0.76443100  0.12588880     0.03230
C1696       C  0.32413263  0.75820662  0.10279941    -0.04650
C1697       C  0.35039491  0.76527646  0.10309159    -0.01750
C1698       C  0.36206685  0.78929628  0.12202033     0.03220
C1699       C  0.30874214  0.79038459  0.16991922     0.37870
C1700       C  0.36521705  0.74648207  0.08420844     0.37860
C1701       C  0.38864233  0.80079693  0.11940882     0.36290
C1702       C  0.28699344  0.74269168  0.13174555     0.36290
N1703       N  0.40990492  0.80959488  0.11721301    -0.38530
N1704       N  0.26875194  0.72431000  0.13963177    -0.38530
N1705       N  0.37697560  0.73090255  0.06930476    -0.37980
N1706       N  0.29761477  0.79258051  0.18924846    -0.37980
C1707       C  0.45495956  0.94244883  0.13680039    -0.04650
C1708       C  0.44077042  0.95379346  0.11167235    -0.01760
C1709       C  0.44780342  0.99086872  0.09132227     0.03230
C1710       C  0.47163440  0.01288653  0.09347980    -0.04650
C1711       C  0.48511244  0.00323675  0.11908617    -0.01750
C1712       C  0.47711556  0.96812466  0.14039662     0.03220
C1713       C  0.41693688  0.93092096  0.10817642     0.37870
C1714       C  0.50423722  0.03480046  0.12490175     0.37860
C1715       C  0.49033545  0.96117650  0.16722158     0.36290
C1716       C  0.42856720  0.00888728  0.07028020     0.36290
N1717       N  0.50065522  0.95589322  0.18874030    -0.38530
N1718       N  0.41225459  0.02235272  0.05451097    -0.38530
N1719       N  0.01873555  0.06156905  0.12900972    -0.37980
N1720       N  0.39784680  0.91316108  0.10530374    -0.37980
C1721       C  0.48920455  0.78402983  0.23360104    -0.04650
C1722       C  0.48749204  0.73776010  0.23433506    -0.01760
C1723       C  0.00883487  0.71056393  0.24215776     0.03230
C1724       C  0.03209241  0.72942778  0.24946089    -0.04650
C1725       C  0.03356033  0.77527691  0.24988371    -0.01750
C1726       C  0.51259742  0.80285251  0.24060962     0.03220
C1727       C  0.46353312  0.71720402  0.22875638     0.37870
C1728       C  0.05618599  0.79409199  0.26079241     0.37860
C1729       C  0.51535135  0.85076019  0.23831335     0.36290
C1730       C  0.00599785  0.66246610  0.24519247     0.36290
N1731       N  0.51823401  0.88877064  0.23669465    -0.38530
N1732       N  0.00267480  0.62432146  0.24826718    -0.38530
N1733       N  0.07373759  0.80931689  0.27031724    -0.37980
N1734       N  0.44468149  0.69978925  0.22457595    -0.37980
C1735       C  0.29258851  0.00073498  0.24093939    -0.04650
C1736       C  0.29052180  0.04758218  0.23410598    -0.01760
C1737       C  0.26632576  0.06783340  0.23029171     0.03230
C1738       C  0.24407471  0.04118375  0.23277852    -0.04650
C1739       C  0.24630622  0.99424726  0.23972465    -0.01750
C1740       C  0.27042559  0.97418352  0.24418128     0.03220
C1741       C  0.31326200  0.07473654  0.23065674     0.37870
C1742       C  0.22381014  0.96645735  0.24330845     0.37860
C1743       C  0.27250869  0.92596505  0.25293107     0.36290
C1744       C  0.26434545  0.11616049  0.22333206     0.36290
N1745       N  0.27418711  0.88759978  0.26010911    -0.38530
N1746       N  0.26280107  0.15471995  0.21768470    -0.38530
N1747       N  0.20596057  0.94406359  0.24605799    -0.37980
N1748       N  0.33144094  0.09631583  0.22794244    -0.37980
C1749       C  0.30559195  0.92162852  0.39345653    -0.04650
C1750       C  0.30568636  0.95109402  0.36787253    -0.01760
C1751       C  0.31099182  0.93562016  0.34380538     0.03230
C1752       C  0.32103538  0.89190208  0.34498062    -0.04650
C1753       C  0.32047597  0.86161064  0.37072866    -0.01750
C1754       C  0.31188645  0.87607868  0.39467098     0.03220
C1755       C  0.30151215  0.99867866  0.36635074     0.37870
C1756       C  0.32988851  0.81659960  0.37298658     0.37860
C1757       C  0.31100646  0.84484714  0.42076064     0.36290
C1758       C  0.30668984  0.96705338  0.31803744     0.36290
N1759       N  0.31026682  0.81958766  0.44152158    -0.38530
N1760       N  0.30244454  0.99544765  0.29922015    -0.38530
N1761       N  0.33742088  0.78060419  0.37478375    -0.37980
N1762       N  0.29862142  0.03657619  0.36511438    -0.37980
C1763       C  0.42958883  0.86298979  0.35247924    -0.04650
C1764       C  0.45151181  0.83669710  0.35073183    -0.01760
C1765       C  0.45492246  0.79498796  0.36835753     0.03230
C1766       C  0.44552122  0.78860023  0.39453620    -0.04650
C1767       C  0.42472718  0.81575361  0.39838873    -0.01750
C1768       C  0.41552043  0.85057457  0.37656609     0.03220
C1769       C  0.47296262  0.85360411  0.33458445     0.37870
C1770       C  0.41403482  0.80951453  0.42536126     0.37860
C1771       C  0.39386058  0.87691634  0.38051905     0.36290
C1772       C  0.47002746  0.76026654  0.36087613     0.36290
N1773       N  0.37672865  0.89830961  0.38383328    -0.38530
N1774       N  0.98072665  0.73118954  0.35460000    -0.38530
N1775       N  0.40556586  0.80446199  0.44695489    -0.37980
N1776       N  0.49135798  0.86532681  0.32347532    -0.37980
C1777       C  0.32428682  0.27851405  0.10071376    -0.04650
C1778       C  0.33950392  0.24758282  0.11952470    -0.01760
C1779       C  0.34944062  0.25905515  0.14450160     0.03230
C1780       C  0.34590217  0.30271833  0.14959465    -0.04650
C1781       C  0.33165771  0.33377989  0.13012024    -0.01750
C1782       C  0.31920843  0.32075253  0.10750279     0.03220
C1783       C  0.34509048  0.20448583  0.11315579     0.37870
C1784       C  0.33098230  0.38074912  0.13191307     0.37860
C1785       C  0.30114529  0.35230304  0.09134054     0.36290
C1786       C  0.36279756  0.22580471  0.16499842     0.36290
N1787       N  0.28705773  0.37854419  0.07912845    -0.38530
N1788       N  0.37318836  0.19886380  0.18140253    -0.38530
N1789       N  0.33028615  0.41847075  0.13226515    -0.37980
N1790       N  0.34948245  0.17001009  0.10806633    -0.37980
C1791       C  0.45591480  0.48298795  0.08911319    -0.04650
C1792       C  0.46562060  0.44053831  0.10362600    -0.01760
C1793       C  0.45345785  0.41636478  0.12650099     0.03230
C1794       C  0.43051280  0.43189727  0.13380049    -0.04650
C1795       C  0.41915940  0.47091913  0.11736778    -0.01750
C1796       C  0.43243893  0.49762361  0.09608968     0.03220
C1797       C  0.48676055  0.41842934  0.09413668     0.37870
C1798       C  0.39344972  0.48309358  0.12200933     0.37860
C1799       C  0.42113682  0.53842350  0.08021467     0.36290
C1800       C  0.46469733  0.37554029  0.14263911     0.36290
N1801       N  0.41206782  0.57096630  0.06764326    -0.38530
N1802       N  0.47361291  0.34298314  0.15538468    -0.38530
N1803       N  0.37286488  0.49301397  0.12517506    -0.37980
N1804       N  0.50274381  0.39785982  0.08730639    -0.37980
C1805       C  0.49070150  0.28436706  0.23993179    -0.04650
C1806       C  0.01233740  0.30591731  0.22752447    -0.01760
C1807       C  0.03548739  0.28235537  0.22858695     0.03230
C1808       C  0.03736923  0.23725063  0.24245367    -0.04650
C1809       C  0.01587439  0.21589424  0.25513444    -0.01750
C1810       C  0.49271560  0.23936624  0.25405112     0.03220
C1811       C  0.51073216  0.35247693  0.21385963     0.37870
C1812       C  0.01771938  0.16973634  0.26967267     0.37860
C1813       C  0.47131266  0.21780602  0.26864258     0.36290
C1814       C  0.05735142  0.30440312  0.21520477     0.36290
N1815       N  0.45438608  0.20060490  0.28057190    -0.38530
N1816       N  0.07481815  0.32197489  0.20454304    -0.38530
N1817       N  0.01929663  0.13293405  0.28126941    -0.37980
N1818       N  0.50944717  0.38969321  0.20300774    -0.37980
C1819       C  0.38238821  0.59272841  0.24711572    -0.04650
C1820       C  0.36747951  0.61220719  0.26463847    -0.01760
C1821       C  0.36517521  0.65923406  0.26079380     0.03230
C1822       C  0.37745774  0.68814027  0.23882614    -0.04650
C1823       C  0.38922862  0.66810532  0.21923787    -0.01750
C1824       C  0.39377393  0.62167387  0.22466367     0.03220
C1825       C  0.35427730  0.58423299  0.28688312     0.37870
C1826       C  0.39580954  0.69450610  0.19265876     0.37860
C1827       C  0.41176228  0.60504856  0.20772812     0.36290
C1828       C  0.34898356  0.67666034  0.27918870     0.36290
N1829       N  0.42644713  0.59290941  0.19416110    -0.38530
N1830       N  0.33583697  0.68962364  0.29399240    -0.38530
N1831       N  0.40099892  0.71508025  0.17134859    -0.37980
N1832       N  0.34382016  0.56237247  0.30481431    -0.37980
C1833       C  0.39443346  0.18159552  0.25607134    -0.04650
C1834       C  0.38165629  0.14966804  0.27571397    -0.01760
C1835       C  0.38373115  0.10383565  0.27569538     0.03230
C1836       C  0.39827859  0.08907212  0.25575182    -0.04650
C1837       C  0.41272823  0.12053186  0.23777101    -0.01750
C1838       C  0.41091684  0.16624920  0.23794072     0.03220
C1839       C  0.36575158  0.16296226  0.29597468     0.37870
C1840       C  0.42992566  0.10676137  0.21884527     0.37860
C1841       C  0.42653910  0.19677655  0.21916323     0.36290
C1842       C  0.37016944  0.07248888  0.29616395     0.36290
N1843       N  0.43896955  0.22029118  0.20385139    -0.38530
N1844       N  0.35953782  0.04781621  0.31270532    -0.38530
N1845       N  0.44364476  0.09762526  0.20322225    -0.37980
N1846       N  0.35316119  0.17272155  0.31241982    -0.37980
C1847       C  0.28433200  0.48486967  0.24690983    -0.04650
C1848       C  0.27642887  0.50667935  0.26756348    -0.01760
C1849       C  0.25399532  0.53260140  0.26355007     0.03230
C1850       C  0.23769307  0.53530887  0.23903737    -0.04650
C1851       C  0.24606107  0.51403215  0.21820108    -0.01750
C1852       C  0.26855809  0.48822276  0.22226106     0.03220
C1853       C  0.29032923  0.49981569  0.29415055     0.37870
C1854       C  0.23213097  0.51925477  0.19184023     0.37860
C1855       C  0.27441325  0.46412763  0.20074569     0.36290
C1856       C  0.24885704  0.55686658  0.28521628     0.36290
N1857       N  0.27783936  0.44471196  0.18336679    -0.38530
N1858       N  0.24573936  0.57624081  0.30268823    -0.38530
N1859       N  0.22131997  0.52192773  0.17071294    -0.37980
N1860       N  0.30099310  0.49397996  0.31553334    -0.37980
C1861       C  0.33343515  0.38534531  0.36116322    -0.04650
C1862       C  0.31212011  0.36419787  0.37437910    -0.01760
C1863       C  0.30260435  0.37883954  0.39777225     0.03230
C1864       C  0.31553640  0.41256209  0.40934437    -0.04650
C1865       C  0.33946667  0.42662320  0.39884482    -0.01750
C1866       C  0.34635831  0.41807028  0.37340282     0.03220
C1867       C  0.29895785  0.32998434  0.36272606     0.37870
C1868       C  0.35777647  0.45026040  0.41356114     0.37860
C1869       C  0.36512795  0.44795489  0.35895033     0.36290
C1870       C  0.28011458  0.35794314  0.41029278     0.36290
N1871       N  0.37922925  0.47435833  0.34823233    -0.38530
N1872       N  0.26225543  0.34091342  0.42038285    -0.38530
N1873       N  0.37293352  0.46862391  0.42479017    -0.37980
N1874       N  0.28849125  0.30258893  0.35340326    -0.37980
C1875       C  0.43379604  0.37154166  0.35489572    -0.04650
C1876       C  0.42258048  0.33068560  0.36817549    -0.01760
C1877       C  0.43783266  0.29386827  0.38165534     0.03230
C1878       C  0.46412484  0.29834114  0.38525278    -0.04650
C1879       C  0.47549094  0.33755694  0.37095888    -0.01750
C1880       C  0.46070006  0.37476122  0.35786270     0.03220
C1881       C  0.39573153  0.32678925  0.37181053     0.37870
C1882       C  0.50290422  0.33954833  0.37038186     0.37860
C1883       C  0.47354696  0.41682683  0.34818023     0.36290
C1884       C  0.42680968  0.25002778  0.39041341     0.36290
N1885       N  0.48388681  0.45029860  0.34060417    -0.38530
N1886       N  0.41809741  0.21471026  0.39648908    -0.38530
N1887       N  0.02472085  0.34079704  0.36940298    -0.37980
N1888       N  0.37492253  0.32014566  0.37765538    -0.37980
O1889       O  0.84940776  0.34220560  0.32774607    -0.74600
O1890       O  0.84185021  0.41720035  0.31629025    -0.53510
C1891       C  0.84112221  0.37993441  0.33309984     0.79130
O1892       O  0.96682811  0.33510565  0.25890281    -0.59200
O1893       O  0.94786089  0.30478616  0.22459687    -0.52230
C1894       C  0.96693136  0.31002295  0.24089893     0.71140
O1895       O  0.93363086  0.42230200  0.31215279    -0.73760
O1896       O  0.89577835  0.40544109  0.32703010    -0.54320
C1897       C  0.92014389  0.40458703  0.33179776     0.77150
O1898       O  0.88190740  0.24342877  0.27531383    -0.58900
O1899       O  0.89763968  0.25687198  0.23242794    -0.52020
C1900       C  0.89099735  0.23047131  0.25451094     0.73740
Zr1901     Zr  0.86879093  0.31217402  0.28821998     2.54710
O1902       O  0.88317697  0.26158669  0.33045367    -0.79470
O1903       O  0.82825164  0.27353601  0.28814865    -0.92890
Zr1904     Zr  0.93572747  0.37839052  0.27745299     2.64680
O1905       O  0.95257819  0.32055206  0.31506794    -0.97840
O1906       O  0.97557173  0.41925996  0.27659764    -0.79900
O1907       O  0.89474802  0.36980872  0.29658469    -0.83260
O1908       O  0.90984693  0.31976023  0.26766491    -2.17970
O1909       O  0.84145895  0.34134361  0.18602410    -0.66650
O1910       O  0.87978245  0.30995618  0.18236446    -0.51210
C1911       C  0.85643874  0.31773580  0.17473805     0.72120
O1912       O  0.88901490  0.52867635  0.22821741    -0.59560
O1913       O  0.88057478  0.51625931  0.27357748    -0.51530
C1914       C  0.88421940  0.54271066  0.25019386     0.73920
O1915       O  0.91838005  0.44930968  0.17383062    -0.70950
O1916       O  0.91986784  0.37483632  0.17319669    -0.49630
C1917       C  0.92226012  0.41680081  0.16204641     0.75310
O1918       O  0.80831281  0.42472983  0.23870387    -0.66280
O1919       O  0.82792772  0.46864335  0.26539992    -0.53480
C1920       C  0.80846316  0.45779152  0.25088578     0.73690
Zr1921     Zr  0.84147449  0.38885838  0.22050552     2.77540
O1922       O  0.83116093  0.45082622  0.18232843    -0.97030
O1923       O  0.80105960  0.35137195  0.21632136    -0.77850
Zr1924     Zr  0.90429066  0.46123878  0.21594106     2.70070
O1925       O  0.89420435  0.52148741  0.17683408    -0.79100
O1926       O  0.94614799  0.49435691  0.21944062    -0.98180
Zr1927     Zr  0.87086067  0.43629966  0.28166179     2.21500
Zr1928     Zr  0.90474610  0.33563039  0.21837302     2.11130
O1929       O  0.88110481  0.40176010  0.20154056    -2.46870
O1930       O  0.86362304  0.45020037  0.23316841    -0.78890
O1931       O  0.86423434  0.32349455  0.23898063    -0.71090
O1932       O  0.91241494  0.44688237  0.26363985    -2.32040
O1933       O  0.84590298  0.37697563  0.26930056    -2.28250
O1934       O  0.92954312  0.39579527  0.22914452    -0.72850
H1935       H  0.91945559  0.29256247  0.27356141     0.79150
H1936       H  0.92124507  0.47195837  0.26891800     0.80240
H1937       H  0.87810401  0.40665575  0.18178124     0.82460
H1938       H  0.82953813  0.37482137  0.27739110     0.80070
H1939       H  0.97065265  0.45074976  0.27570023     0.43100
H1940       H  0.95799236  0.46872625  0.22355744     0.42080
H1941       H  0.87555299  0.52469640  0.17648629     0.41750
H1942       H  0.84730904  0.45995372  0.17352189     0.39690
H1943       H  0.80191375  0.32474610  0.23148492     0.42820
H1944       H  0.81530933  0.29726303  0.28654012     0.37600
H1945       H  0.90184759  0.26111514  0.32944434     0.43720
H1946       H  0.94849089  0.29158095  0.30983832     0.40130
H1947       H  0.82709302  0.47603141  0.19126885     0.45050
H1948       H  0.82712931  0.25644494  0.30729981     0.43780
H1949       H  0.97121483  0.32314597  0.31393894     0.43910
H1950       H  0.94961812  0.50902350  0.20024118     0.44270
O1951       O  0.90213383  0.03273393  0.22913126    -0.74600
O1952       O  0.89129248  0.01216599  0.27357306    -0.53510
C1953       C  0.89737952  0.04164176  0.25273014     0.79130
O1954       O  0.84451586  0.85563746  0.17281447    -0.59200
O1955       O  0.88240093  0.82278397  0.16971624    -0.52230
C1956       C  0.85895339  0.82930802  0.16268891     0.71140
O1957       O  0.81843530  0.95740457  0.22065151    -0.73760
O1958       O  0.83435354  0.97784388  0.26029310    -0.54320
C1959       C  0.81715375  0.97810232  0.24062670     0.77150
O1960       O  0.93579628  0.95547772  0.17445012    -0.58900
O1961       O  0.93210444  0.88328906  0.16847111    -0.52020
C1962       C  0.94049036  0.92430915  0.16183959     0.73740
Zr1963     Zr  0.91240985  0.96649413  0.21154309     2.54710
O1964       O  0.90166047  0.02591249  0.17214454    -0.79470
O1965       O  0.95490970  0.99501864  0.21851837    -0.92890
Zr1966     Zr  0.84676128  0.90760025  0.20569776     2.64680
O1967       O  0.84116383  0.96324363  0.16312618    -0.97840
O1968       O  0.80298198  0.88329034  0.20207202    -0.79900
O1969       O  0.87074288  0.96076770  0.22555053    -0.83260
O1970       O  0.88829808  0.91422769  0.19074645    -2.17970
O1971       O  0.96509902  0.83256055  0.25213364    -0.66650
O1972       O  0.94756188  0.80658682  0.21551958    -0.51210
C1973       C  0.96585531  0.81004877  0.23302902     0.72120
O1974       O  0.84008186  0.84802141  0.31258525    -0.59560
O1975       O  0.84906260  0.92137327  0.31166725    -0.51530
C1976       C  0.83755078  0.88545871  0.32162275     0.73920
O1977       O  0.86815484  0.75311393  0.25625088    -0.70950
O1978       O  0.89407536  0.76227510  0.21995253    -0.50590
C1979       C  0.87977800  0.73796266  0.23781388     0.75310
O1980       O  0.93671424  0.91018308  0.30944958    -0.66280
O1981       O  0.89692177  0.90709860  0.32143074    -0.53480
C1982       C  0.92076208  0.89814884  0.32768181     0.73690
Zr1983     Zr  0.93428727  0.87077334  0.27242253     2.77540
O1984       O  0.94315363  0.80012255  0.30432745    -0.97030
O1985       O  0.97551691  0.90662319  0.27279106    -0.77850
Zr1986     Zr  0.86342990  0.82049377  0.27405472     2.70070
O1987       O  0.87376076  0.76323096  0.31476839    -0.79100
O1988       O  0.81972440  0.79620634  0.26891970    -0.98180
Zr1989     Zr  0.87526945  0.93882394  0.27463263     2.21500
Zr1990     Zr  0.90632447  0.84211600  0.20767053     2.11130
O1991       O  0.90583527  0.82053558  0.25685951    -2.46870
O1992       O  0.89291229  0.86738450  0.29005443    -0.78890
O1993       O  0.93191365  0.89531000  0.22456050    -0.71090
O1994       O  0.84700103  0.89068495  0.25518606    -2.32040
O1995       O  0.91724823  0.94382467  0.25948882    -2.28250
O1996       O  0.86411554  0.83750062  0.22443259    -0.72850
H1997       H  0.88807905  0.92205520  0.17081760     0.79150
H1998       H  0.83003465  0.89198209  0.26147832     0.80240
H1999       H  0.91286392  0.79088018  0.26233441     0.82460
H2000       H  0.92762284  0.96497404  0.26713944     0.80070
H2001       H  0.79667629  0.89884202  0.18351370     0.43100
H2002       H  0.81991142  0.77650445  0.25525474     0.42080
H2003       H  0.87985445  0.78009938  0.32895809     0.41750
H2004       H  0.94873343  0.77861240  0.29323917     0.39690
H2005       H  0.97550944  0.92871677  0.25519888     0.42820
H2006       H  0.95345646  0.01401568  0.23243325     0.37600
H2007       H  0.88291012  0.02573132  0.17062575     0.43720
H2008       H  0.84234414  0.94619002  0.14815079     0.40130
H2009       H  0.92642995  0.78888243  0.31090772     0.45050
H2010       H  0.95832654  0.01601452  0.20107949     0.43780
H2011       H  0.82311579  0.97203813  0.16242102     0.43910
H2012       H  0.81643112  0.77595836  0.28668445     0.44270
O2013       O  0.64602176  0.27438598  0.22532061    -0.74600
O2014       O  0.63024450  0.25799161  0.26829621    -0.53510
C2015       C  0.63806964  0.28555315  0.24721096     0.79130
O2016       O  0.59203829  0.08677433  0.17475289    -0.59200
O2017       O  0.63118103  0.05693075  0.17285707    -0.52230
C2018       C  0.60774172  0.06245453  0.16457371     0.71140
O2019       O  0.56239210  0.18660122  0.22449249    -0.73760
O2020       O  0.57895215  0.21519379  0.26109420    -0.54320
C2021       C  0.56128571  0.21154297  0.24267232     0.77150
O2022       O  0.67733073  0.19697508  0.17063962    -0.58900
O2023       O  0.67902618  0.12345095  0.16751283    -0.52020
C2024       C  0.68373973  0.16599466  0.15859878     0.73740
Zr2025     Zr  0.65530246  0.20662263  0.20899428     2.54710
O2026       O  0.63944105  0.26321044  0.17028735    -0.79470
O2027       O  0.69802545  0.23676064  0.20995421    -0.92890
Zr2028     Zr  0.59230972  0.13581672  0.20974551     2.64680
O2029       O  0.57945673  0.18758968  0.16730604    -0.97840
O2030       O  0.55186833  0.09668310  0.21276066    -0.79900
O2031       O  0.61441046  0.19521922  0.22520753    -0.83260
O2032       O  0.63323336  0.14797808  0.19226411    -2.17970
O2033       O  0.71732704  0.08708194  0.25114449    -0.66650
O2034       O  0.70034628  0.05327353  0.21732703    -0.51210
C2035       C  0.71891533  0.06223655  0.23327001     0.72120
O2036       O  0.60219409  0.08536011  0.32178600    -0.59560
O2037       O  0.58760318  0.15430001  0.30409531    -0.51530
C2038       C  0.59108150  0.12245662  0.32450807     0.73920
O2039       O  0.62911938  0.98781298  0.26602752    -0.70950
O2040       O  0.65046606  0.99933375  0.22565282    -0.49630
C2041       C  0.64020951  0.97404035  0.24662624     0.75310
O2042       O  0.68313326  0.16565609  0.30699330    -0.66280
O2043       O  0.64403557  0.15748384  0.32112815    -0.53480
C2044       C  0.66831127  0.15264418  0.32638997     0.73690
Zr2045     Zr  0.68445585  0.12229927  0.27153715     2.77540
O2046       O  0.69894467  0.05738155  0.30565888    -0.97030
O2047       O  0.72210782  0.16942476  0.26974093    -0.77850
Zr2048     Zr  0.61808556  0.05724953  0.27931766     2.70070
O2049       O  0.63070213  0.00144824  0.31999428    -0.79100
O2050       O  0.57575557  0.02526446  0.27848264    -0.98180
Zr2051     Zr  0.62036840  0.17948258  0.27424130     2.21500
Zr2052     Zr  0.65659059  0.08078587  0.20953028     2.11130
O2053       O  0.65935539  0.06457690  0.25921179    -2.46870
O2054       O  0.64379951  0.11321735  0.29111698    -0.78890
O2055       O  0.67933209  0.14044889  0.22329261    -0.71090
O2056       O  0.59556417  0.12201817  0.25897597    -2.32040
O2057       O  0.66172155  0.19027810  0.25695818    -2.28250
O2058       O  0.61545175  0.07058636  0.22941426    -0.72850
H2059       H  0.63199148  0.15418987  0.17230676     0.79150
H2060       H  0.57860355  0.11980729  0.26562988     0.80240
H2061       H  0.66867966  0.03712691  0.26539772     0.82460
H2062       H  0.67060547  0.21448789  0.26317146     0.80070
H2063       H  0.54790054  0.09188681  0.23251648     0.43100
H2064       H  0.57398324  0.01595995  0.26040416     0.42080
H2065       H  0.64019077  0.01844224  0.33225506     0.41750
H2066       H  0.68324497  0.04291844  0.31327403     0.39690
H2067       H  0.73681635  0.14973035  0.26941547     0.42820
H2068       H  0.70069267  0.24400799  0.22849796     0.37600
H2069       H  0.62092003  0.25802617  0.16943725     0.43720
H2070       H  0.58849100  0.17742701  0.15254459     0.40130
H2071       H  0.70601239  0.03591120  0.29540094     0.45050
H2072       H  0.69702618  0.26591213  0.19693035     0.43780
H2073       H  0.56146449  0.18018247  0.16386823     0.43910
H2074       H  0.57697766  0.99685983  0.29221619     0.44270
O2075       O  0.67577792  0.70385695  0.17951552    -0.74600
O2076       O  0.67114918  0.63669237  0.16647465    -0.53510
C2077       C  0.67871784  0.67867458  0.16229211     0.79130
O2078       O  0.67713131  0.66359895  0.30795399    -0.59200
O2079       O  0.64009581  0.64908769  0.32595915    -0.52230
C2080       C  0.66453927  0.64741591  0.32866508     0.71140
O2081       O  0.70914883  0.58238538  0.25440516    -0.73760
O2082       O  0.69451890  0.55453328  0.21763017    -0.54320
C2083       C  0.71212783  0.55903670  0.23624183     0.77150
O2084       O  0.63986470  0.77251121  0.23406800    -0.58900
O2085       O  0.62417984  0.75401117  0.27709215    -0.52020
C2086       C  0.63224491  0.78249244  0.25637724     0.73740
Zr2087     Zr  0.64580835  0.70888717  0.21267568     2.54710
O2088       O  0.67376722  0.77233689  0.19859814    -0.79470
O2089       O  0.61258774  0.74375699  0.18003027    -0.92890
Zr2090     Zr  0.67750892  0.62110731  0.27255754     2.64680
O2091       O  0.71750498  0.66181688  0.27127817    -0.97840
O2092       O  0.69254527  0.56262443  0.31067488    -0.79900
O2093       O  0.67176623  0.64414024  0.22435796    -0.83260
O2094       O  0.65528704  0.68941767  0.26044971    -2.17970
O2095       O  0.55708458  0.68201328  0.23128338    -0.66650
O2096       O  0.57252471  0.70468435  0.27036462    -0.51210
C2097       C  0.55541946  0.70321138  0.25103125     0.72120
O2098       O  0.62205054  0.48875623  0.25959818    -0.59560
O2099       O  0.64287141  0.50445875  0.21912633    -0.51530
C2100       C  0.63244807  0.47725905  0.23905750     0.73920
O2101       O  0.58809035  0.57222181  0.31934388    -0.70950
O2102       O  0.59144470  0.64692746  0.31920219    -0.49630
C2103       C  0.58328033  0.60796986  0.32940626     0.75310
O2104       O  0.58225608  0.58506124  0.18098311    -0.66280
O2105       O  0.62088596  0.56036836  0.17202768    -0.53480
C2106       C  0.59632989  0.56283996  0.16783409     0.73690
Zr2107     Zr  0.58597909  0.63600307  0.21358913     2.77540
O2108       O  0.54615043  0.59548496  0.21414696    -0.97030
O2109       O  0.57186217  0.68854584  0.17201801    -0.77850
Zr2110     Zr  0.61204367  0.55339079  0.27841499     2.70070
O2111       O  0.56948438  0.52507848  0.27200662    -0.79100
O2112       O  0.62365538  0.48748526  0.31320657    -0.98180
Zr2113     Zr  0.65037400  0.58524343  0.20743505     2.21500
Zr2114     Zr  0.61531462  0.67440285  0.28066668     2.11130
O2115       O  0.58987838  0.61972277  0.26288615    -2.46870
O2116       O  0.61010313  0.57167710  0.22896245    -0.78890
O2117       O  0.60666483  0.69393797  0.23193048    -0.71090
O2118       O  0.65302520  0.56492289  0.25748950    -2.32040
O2119       O  0.62552746  0.65149923  0.19327737    -2.28250
O2120       O  0.63809533  0.60640128  0.29394043    -0.72850
H2121       H  0.66467684  0.71321849  0.26656123     0.79150
H2122       H  0.66256546  0.53749396  0.26284726     0.80240
H2123       H  0.57329995  0.61694177  0.27052450     0.82460
H2124       H  0.62352003  0.65915889  0.17337982     0.80070
H2125       H  0.67958640  0.53881060  0.31184359     0.43100
H2126       H  0.61116690  0.48569524  0.32771927     0.42080
H2127       H  0.56833367  0.52205899  0.25241542     0.41750
H2128       H  0.54216564  0.58801837  0.23387774     0.39690
H2129       H  0.55441664  0.69683330  0.17556090     0.42820
H2130       H  0.61606234  0.73589021  0.16208967     0.37600
H2131       H  0.68818476  0.76737621  0.21237168     0.43720
H2132       H  0.72197323  0.66739901  0.25164556     0.40130
H2133       H  0.53345719  0.61820055  0.20544080     0.45050
H2134       H  0.61585320  0.77618171  0.17760947     0.43780
H2135       H  0.71315945  0.69176472  0.27453738     0.43910
H2136       H  0.64005314  0.49471315  0.32175117     0.44270
O2137       O  0.72098956  0.30951002  0.05597722    -0.74600
O2138       O  0.76011550  0.29897282  0.07225772    -0.53510
C2139       C  0.73602141  0.29291986  0.07588894     0.79130
O2140       O  0.77713797  0.14737408  0.00550990    -0.59200
O2141       O  0.75504875  0.16236375  0.96386189    -0.52230
C2142       C  0.76611987  0.13541376  0.98446070     0.71140
O2143       O  0.80578350  0.23509667  0.06699727    -0.73760
O2144       O  0.81629513  0.30753296  0.05453283    -0.54320
C2145       C  0.81557430  0.27187602  0.07249082     0.77150
O2146       O  0.68928892  0.22519197  0.99976657    -0.58900
O2147       O  0.70240381  0.20730800  0.95996349    -0.52020
C2148       C  0.68645349  0.20509733  0.97949498     0.73740
Zr2149     Zr  0.71908525  0.27229662  0.01791038     2.54710
O2150       O  0.70635996  0.21213754  0.05475272    -0.79470
O2151       O  0.67783440  0.30836298  0.01473466    -0.92890
Zr2152     Zr  0.78718396  0.21406659  0.02295661     2.64680
O2153       O  0.77922587  0.15081293  0.06011997    -0.97840
O2154       O  0.83049343  0.18965023  0.01970513    -0.79900
O2155       O  0.76073786  0.26393697  0.03845714    -0.83260
O2156       O  0.74473844  0.21990410  0.00258924    -2.17970
O2157       O  0.70822040  0.33865229  0.93360874    -0.66650
O2158       O  0.72484357  0.29081384  0.91080710    -0.51210
C2159       C  0.71235111  0.32704204  0.91097869     0.72120
O2160       O  0.83775790  0.35038938  0.98133584    -0.59560
O2161       O  0.82264335  0.36959849  0.02024627    -0.51530
C2162       C  0.83998766  0.36890004  0.00259708     0.73920
O2163       O  0.80642857  0.26425757  0.92216663    -0.70950
O2164       O  0.77060875  0.22609275  0.91567056    -0.49630
C2165       C  0.79338373  0.23840563  0.90913213     0.75310
O2166       O  0.74836302  0.43033853  0.98121502    -0.66280
O2167       O  0.76950920  0.41374741  0.02313948    -0.53480
C2168       C  0.75848633  0.44142631  0.00295873     0.73690
Zr2169     Zr  0.74182149  0.36688730  0.95921477     2.77540
O2170       O  0.75924983  0.41962015  0.92102828    -0.97030
O2171       O  0.70629496  0.41830847  0.94731189    -0.77850
Zr2172     Zr  0.80715185  0.30547871  0.96017624     2.70070
O2173       O  0.82132969  0.36119561  0.92148496    -0.79100
O2174       O  0.84693400  0.26413278  0.96880839    -0.98180
Zr2175     Zr  0.78043258  0.33491953  0.02674366     2.21500
Zr2176     Zr  0.74511854  0.24254465  0.95307181     2.11130
O2177       O  0.76550726  0.31438142  0.94061042    -2.46870
O2178       O  0.78352103  0.35853778  0.97793960    -0.78890
O2179       O  0.72087890  0.29660183  0.96992321    -0.71090
O2180       O  0.80574899  0.28374505  0.00838412    -2.32040
O2181       O  0.73804147  0.34429521  0.00728291    -2.28250
O2182       O  0.78749654  0.23537950  0.97364056    -0.72850
H2183       H  0.73650296  0.19122387  0.00743609     0.79150
H2184       H  0.82319437  0.28122105  0.01514641     0.80240
H2185       H  0.76643807  0.32341499  0.92085559     0.82460
H2186       H  0.72845934  0.36591152  0.01446656     0.80070
H2187       H  0.83885592  0.19123766  0.03781717     0.43100
H2188       H  0.84542203  0.24036926  0.95781576     0.42080
H2189       H  0.81905695  0.39014388  0.92722805     0.41750
H2190       H  0.77117221  0.40244323  0.91233233     0.39690
H2191       H  0.69284231  0.40479696  0.95964769     0.42820
H2192       H  0.68139157  0.33867791  0.01826336     0.37600
H2193       H  0.72178803  0.19361361  0.05977448     0.43720
H2194       H  0.76727466  0.16238519  0.07188060     0.40130
H2195       H  0.74494807  0.42766233  0.90739549     0.45050
H2196       H  0.66921892  0.29276619  0.03131491     0.43780
H2197       H  0.79532074  0.14630632  0.07136613     0.43910
H2198       H  0.85993285  0.28490671  0.95981897     0.44270
O2199       O  0.71687414  0.80142232  0.05343726    -0.74600
O2200       O  0.75713433  0.80100069  0.06884874    -0.53510
C2201       C  0.73344841  0.79075069  0.07275714     0.79130
O2202       O  0.77674884  0.64813753  0.00195997    -0.59200
O2203       O  0.75344811  0.66077227  0.96123569    -0.52230
C2204       C  0.76490149  0.63463062  0.98193328     0.71140
O2205       O  0.80577838  0.73004851  0.06370162    -0.73760
O2206       O  0.80442344  0.80462630  0.06483278    -0.54320
C2207       C  0.81033691  0.76397148  0.07545810     0.77150
O2208       O  0.68950622  0.72674906  0.98861980    -0.58900
O2209       O  0.70516284  0.70923059  0.94983809    -0.52020
C2210       C  0.68782476  0.70901894  0.96709644     0.73740
Zr2211     Zr  0.71832350  0.76637125  0.01495082     2.54710
O2212       O  0.70208281  0.70494143  0.04880612    -0.79470
O2213       O  0.67654411  0.80086860  0.01154425    -0.92890
Zr2214     Zr  0.78892243  0.71534240  0.01802647     2.64680
O2215       O  0.79859008  0.64836007  0.05317461    -0.97840
O2216       O  0.83184045  0.70264607  0.00540907    -0.79900
O2217       O  0.76065061  0.76189998  0.03438882    -0.83260
O2218       O  0.74567553  0.71653931  0.99970396    -2.17970
O2219       O  0.70197365  0.83316036  0.93803991    -0.66650
O2220       O  0.71870731  0.78865770  0.91310984    -0.51210
C2221       C  0.70329431  0.82062201  0.91524146     0.72120
O2222       O  0.81968229  0.88114705  0.96638610    -0.59560
O2223       O  0.82102806  0.87137685  0.01292299    -0.51530
C2224       C  0.83064717  0.88648787  0.98903462     0.73920
O2225       O  0.80593237  0.76932214  0.91901596    -0.70950
O2226       O  0.77119892  0.72824196  0.91297938    -0.49630
C2227       C  0.79359863  0.74188950  0.90658547     0.75310
O2228       O  0.75032518  0.93089314  0.97448063    -0.66280
O2229       O  0.76718770  0.91412064  0.01868572    -0.53480
C2230       C  0.75891533  0.94207013  0.99684137     0.73690
Zr2231     Zr  0.73805888  0.86420395  0.95801244     2.77540
O2232       O  0.74115324  0.91442095  0.91334150    -0.97030
O2233       O  0.70114876  0.90424458  0.96700741    -0.77850
Zr2234     Zr  0.80543630  0.81072215  0.95669860     2.70070
O2235       O  0.82379499  0.85548708  0.91594686    -0.79100
O2236       O  0.84872699  0.78651599  0.97051094    -0.98180
Zr2237     Zr  0.77892161  0.83484366  0.02454171     2.21500
Zr2238     Zr  0.74631639  0.74231297  0.95028993     2.11130
O2239       O  0.76356194  0.81625844  0.93733660    -2.46870
O2240       O  0.77986103  0.85899289  0.97577717    -0.78890
O2241       O  0.72051524  0.79208223  0.96797184    -0.71090
O2242       O  0.80639732  0.78724834  0.00575234    -2.32040
O2243       O  0.73618186  0.83974488  0.00614538    -2.28250
O2244       O  0.78909295  0.73795892  0.96908326    -0.72850
H2245       H  0.73765465  0.68767603  0.00440922     0.79150
H2246       H  0.82340000  0.78761266  0.01376340     0.80240
H2247       H  0.76358330  0.82592498  0.91750380     0.82460
H2248       H  0.72653721  0.86061895  0.01389939     0.80070
H2249       H  0.84255395  0.70489243  0.02203654     0.43100
H2250       H  0.85075581  0.75857348  0.96356928     0.42080
H2251       H  0.80961868  0.87437835  0.90651262     0.41750
H2252       H  0.73846677  0.89527231  0.89948144     0.39690
H2253       H  0.69180373  0.88262698  0.98058624     0.42820
H2254       H  0.67854571  0.82709077  0.02044414     0.37600
H2255       H  0.71221554  0.67878423  0.04681264     0.43720
H2256       H  0.78494022  0.62637030  0.05182389     0.40130
H2257       H  0.72564863  0.93297301  0.91140340     0.45050
H2258       H  0.66629329  0.77950416  0.02435720     0.43780
H2259       H  0.81381847  0.63526763  0.04692519     0.43910
H2260       H  0.85953550  0.80872932  0.95897449     0.44270
O2261       O  0.96768731  0.05577011  0.04801148    -0.74600
O2262       O  0.50708506  0.04824497  0.06587435    -0.53510
C2263       C  0.98274160  0.04271660  0.06849975     0.79130
O2264       O  0.52439677  0.88654267  0.99496088    -0.59200
O2265       O  0.50141283  0.90619485  0.95399668    -0.52230
C2266       C  0.51313533  0.87712382  0.97296127     0.71140
O2267       O  0.55732199  0.96571895  0.06102897    -0.73760
O2268       O  0.56022089  0.04077503  0.06064643    -0.54320
C2269       C  0.56541658  0.99995298  0.07126390     0.77150
O2270       O  0.93546049  0.97888023  0.99154867    -0.58900
O2271       O  0.94880535  0.95821284  0.95253840    -0.52020
C2272       C  0.93207517  0.95978528  0.97100162     0.73740
Zr2273     Zr  0.96863955  0.01730602  0.01067319     2.54710
O2274       O  0.95722278  0.95133537  0.04430088    -0.79470
O2275       O  0.92931502  0.06015444  0.00344858    -0.92890
Zr2276     Zr  0.53377965  0.95084777  0.01738353     2.64680
O2277       O  0.51916034  0.89230953  0.05427287    -0.97840
O2278       O  0.57551899  0.91871515  0.01567332    -0.79900
O2279       O  0.50958536  0.00465521  0.03271413    -0.83260
O2280       O  0.49203936  0.96226149  0.99526316    -2.17970
O2281       O  0.97691395  0.10622046  0.91169920    -0.66650
O2282       O  0.97446080  0.03529749  0.90322150    -0.51210
C2283       C  0.97133663  0.07841961  0.89625110     0.72120
O2284       O  0.58599253  0.09489713  0.97125346    -0.59560
O2285       O  0.57333447  0.11319291  0.01129335    -0.51530
C2286       C  0.58862657  0.11640832  0.99097123     0.73920
O2287       O  0.55938794  0.99466316  0.92197654    -0.70950
O2288       O  0.52073820  0.96935454  0.91001963    -0.49630
C2289       C  0.54487650  0.97447353  0.90671084     0.75310
O2290       O  0.50433924  0.17266165  0.97900044    -0.66280
O2291       O  0.52162072  0.15053600  0.02222288    -0.53480
C2292       C  0.51215706  0.18079253  0.00255515     0.73690
Zr2293     Zr  0.49557441  0.11078350  0.95533458     2.77540
O2294       O  0.51154501  0.17520328  0.92339070    -0.97030
O2295       O  0.95388413  0.14446871  0.95496495    -0.77850
Zr2296     Zr  0.55773314  0.04110506  0.95688024     2.70070
O2297       O  0.56676049  0.09462345  0.91509681    -0.79100
O2298       O  0.59973471  0.00740474  0.96366570    -0.98180
Zr2299     Zr  0.53230955  0.07323213  0.02298960     2.21500
Zr2300     Zr  0.49360064  0.98694155  0.94615560     2.11130
O2301       O  0.51694815  0.05575063  0.93640993    -2.46870
O2302       O  0.53665461  0.09686899  0.97456944    -0.78890
O2303       O  0.97170215  0.04340466  0.96295815    -0.71090
O2304       O  0.55594566  0.01894429  0.00552509    -2.32040
O2305       O  0.99056607  0.08617547  0.00259940    -2.28250
O2306       O  0.53511501  0.97403341  0.96844868    -0.72850
H2307       H  0.98276606  0.93441887  0.99920527     0.79150
H2308       H  0.57299208  0.01632839  0.01357897     0.80240
H2309       H  0.51886147  0.06541831  0.91679628     0.82460
H2310       H  0.98149113  0.10857552  0.00958918     0.80070
H2311       H  0.58724564  0.93668246  0.02525680     0.43100
H2312       H  0.59677709  0.97531118  0.96372569     0.42080
H2313       H  0.55927752  0.12283693  0.91786946     0.41750
H2314       H  0.52185546  0.16245346  0.91068253     0.39690
H2315       H  0.94227973  0.12581034  0.94573788     0.42820
H2316       H  0.92501186  0.06443454  0.98339356     0.37600
H2317       H  0.97332765  0.94106029  0.05449128     0.43720
H2318       H  0.50388640  0.87984346  0.04621189     0.40130
H2319       H  0.99638160  0.18802373  0.91195350     0.45050
H2320       H  0.93412190  0.09036190  0.00633015     0.43780
H2321       H  0.53206456  0.86844777  0.05613069     0.43910
H2322       H  0.60816343  0.01884696  0.94617425     0.44270
O2323       O  0.56501482  0.48840730  0.06165174    -0.74600
O2324       O  0.52383893  0.47864866  0.06986423    -0.53510
C2325       C  0.54718402  0.48495453  0.07825643     0.79130
O2326       O  0.99987585  0.66552024  0.98662659    -0.59200
O2327       O  0.52615327  0.66878207  0.95056258    -0.52230
C2328       C  0.51297433  0.68703842  0.96689961     0.71140
O2329       O  0.97361241  0.54310833  0.05383884    -0.73760
O2330       O  0.96707703  0.47261853  0.04751236    -0.54320
C2331       C  0.96590016  0.50196374  0.06186864     0.77150
O2332       O  0.58822953  0.59185703  0.99345669    -0.58900
O2333       O  0.57566998  0.62232633  0.94959674    -0.52020
C2334       C  0.59175982  0.61766373  0.97032608     0.73740
Zr2335     Zr  0.56089112  0.53620539  0.01724707     2.54710
O2336       O  0.57073263  0.58638613  0.04899376    -0.79470
O2337       O  0.60269184  0.50160289  0.02153839    -0.92890
Zr2338     Zr  0.99142007  0.58839762  0.00973480     2.64680
O2339       O  0.99601541  0.63961135  0.04162776    -0.97840
O2340       O  0.94765093  0.61297070  0.99986448    -0.79900
O2341       O  0.51926547  0.53290694  0.03377027    -0.83260
O2342       O  0.53380292  0.59376282  0.99408814    -2.17970
O2343       O  0.57117970  0.50232930  0.93003120    -0.66650
O2344       O  0.55163666  0.56277893  0.90590708    -0.51210
C2345       C  0.56384458  0.52559906  0.90674755     0.72120
O2346       O  0.94360495  0.46996313  0.97780215    -0.59560
O2347       O  0.95983438  0.43296021  0.01961968    -0.51530
C2348       C  0.94150576  0.44278456  0.00109643     0.73920
O2349       O  0.96744006  0.59219492  0.92105188    -0.70950
O2350       O  0.50387081  0.62985706  0.91040668    -0.49630
C2351       C  0.97966287  0.62623122  0.90800957     0.75310
O2352       O  0.52820901  0.38900664  0.98491391    -0.66280
O2353       O  0.01249856  0.38730139  0.02733265    -0.53480
C2354       C  0.51891227  0.36852793  0.00763503     0.73690
Zr2355     Zr  0.54237889  0.46300028  0.96283003     2.77540
O2356       O  0.53586138  0.42537450  0.92401785    -0.97030
O2357       O  0.58086536  0.41978175  0.97689639    -0.77850
Zr2358     Zr  0.97463632  0.51848513  0.95142750     2.70070
O2359       O  0.97721551  0.47297070  0.91628975    -0.79100
O2360       O  0.93327568  0.52435819  0.92697495    -0.98180
Zr2361     Zr  0.00262252  0.46519524  0.02409541     2.21500
Zr2362     Zr  0.53350112  0.59085388  0.94574301     2.11130
O2363       O  0.51626687  0.52167535  0.93656553    -2.46870
O2364       O  0.00025027  0.45967470  0.97661002    -0.78890
O2365       O  0.55998369  0.53168325  0.97022687    -0.71090
O2366       O  0.97498150  0.52268427  0.99877839    -2.32040
O2367       O  0.54490692  0.46635852  0.01021688    -2.28250
O2368       O  0.99124837  0.58556323  0.96182703    -0.72850
H2369       H  0.54131417  0.62130366  0.99730128     0.79150
H2370       H  0.95781954  0.52202673  0.00469269     0.80240
H2371       H  0.51523300  0.52046744  0.91719416     0.82460
H2372       H  0.55458718  0.44173306  0.02099410     0.80070
H2373       H  0.93856285  0.59824207  0.01631269     0.43100
H2374       H  0.92107274  0.52963564  0.94055938     0.42080
H2375       H  0.97361342  0.49396071  0.89853659     0.41750
H2376       H  0.51787496  0.41608844  0.92454094     0.39690
H2377       H  0.59423623  0.44251670  0.97752088     0.42820
H2378       H  0.59945288  0.47024066  0.01992404     0.37600
H2379       H  0.58256673  0.56957097  0.06336148     0.43720
H2380       H  0.51159990  0.63068229  0.05245295     0.40130
H2381       H  0.54546557  0.39707357  0.92955912     0.45050
H2382       H  0.60849601  0.49945866  0.04107110     0.43780
H2383       H  0.98226262  0.63153342  0.05465940     0.43910
H2384       H  0.92925734  0.49388758  0.92398869     0.44270
O2385       O  0.84881983  0.15460847  0.80537366    -0.74600
O2386       O  0.84978036  0.23064143  0.79932371    -0.53510
C2387       C  0.84354805  0.19246362  0.81292006     0.79130
O2388       O  0.97146551  0.14659153  0.74382680    -0.59200
O2389       O  0.95340592  0.11529413  0.70947625    -0.52230
C2390       C  0.97186825  0.12052240  0.72645331     0.71140
O2391       O  0.93711271  0.23166196  0.79661784    -0.73760
O2392       O  0.89829563  0.21485364  0.80813502    -0.54320
C2393       C  0.92227092  0.21350920  0.81483307     0.77150
O2394       O  0.88476504  0.05717510  0.75359790    -0.58900
O2395       O  0.90546177  0.06974837  0.71343334    -0.52020
C2396       C  0.89597522  0.04364611  0.73414049     0.73740
Zr2397     Zr  0.87146728  0.12584162  0.76684480     2.54710
O2398       O  0.88321304  0.07294400  0.80908349    -0.79470
O2399       O  0.83052930  0.08950864  0.76363002    -0.92890
Zr2400     Zr  0.93980468  0.19039542  0.76074622     2.64680
O2401       O  0.95661885  0.13212160  0.79808222    -0.97840
O2402       O  0.97883313  0.23348663  0.75991203    -0.79900
O2403       O  0.89832804  0.18016764  0.77832678    -0.83260
O2404       O  0.91378993  0.13304754  0.74911334    -2.17970
O2405       O  0.84762864  0.14788695  0.66647070    -0.66650
O2406       O  0.88692954  0.11812269  0.66531643    -0.51210
C2407       C  0.86327843  0.12146165  0.65787035     0.72120
O2408       O  0.90290136  0.34244495  0.71582453    -0.59560
O2409       O  0.88667491  0.32478878  0.75866308    -0.51530
C2410       C  0.89486388  0.35272205  0.73802641     0.73920
O2411       O  0.94818520  0.24421394  0.68212511    -0.70950
O2412       O  0.93484400  0.19125427  0.65988698    -0.49630
C2413       C  0.94741065  0.22769186  0.66045811     0.75310
O2414       O  0.81849165  0.25425624  0.71220879    -0.66280
O2415       O  0.83478819  0.28140214  0.74926409    -0.53480
C2416       C  0.81724458  0.27837838  0.73071213     0.73690
Zr2417     Zr  0.84789629  0.20430113  0.69715274     2.77540
O2418       O  0.83553107  0.25454525  0.65396068    -0.97030
O2419       O  0.80603676  0.17018601  0.69816687    -0.77850
Zr2420     Zr  0.91090295  0.27582405  0.69637404     2.70070
O2421       O  0.89227060  0.30777278  0.65083994    -0.79100
O2422       O  0.93774506  0.33899117  0.67781212    -0.98180
Zr2423     Zr  0.87630864  0.24733750  0.76200708     2.21500
Zr2424     Zr  0.91152439  0.14914080  0.69968217     2.11130
O2425       O  0.88890280  0.21642226  0.67982044    -2.46870
O2426       O  0.87000543  0.26381725  0.71291143    -0.78890
O2427       O  0.86980772  0.13871206  0.71742378    -0.71090
O2428       O  0.91789383  0.25977825  0.74496715    -2.32040
O2429       O  0.85023776  0.19190420  0.74653435    -2.28250
O2430       O  0.93475599  0.20910431  0.71285493    -0.72850
H2431       H  0.92292287  0.10546537  0.75565223     0.79150
H2432       H  0.92705702  0.28350974  0.75141155     0.80240
H2433       H  0.88830430  0.22089907  0.65992365     0.82460
H2434       H  0.83347970  0.19141366  0.75363073     0.80070
H2435       H  0.97785618  0.25427832  0.74176768     0.43100
H2436       H  0.95368479  0.33403759  0.68931071     0.42080
H2437       H  0.87843118  0.32713153  0.65456369     0.41750
H2438       H  0.84954789  0.25355660  0.64149925     0.39690
H2439       H  0.80924147  0.13776761  0.70438509     0.42820
H2440       H  0.81846207  0.11411824  0.75645300     0.37600
H2441       H  0.90193100  0.07138162  0.80912906     0.43720
H2442       H  0.95321845  0.10338567  0.79222561     0.40130
H2443       H  0.82127556  0.23912039  0.64609636     0.45050
H2444       H  0.82604662  0.07897704  0.78308563     0.43780
H2445       H  0.97525930  0.13563230  0.79771575     0.43910
H2446       H  0.94234148  0.33414774  0.65942859     0.44270
O2447       O  0.84996280  0.65866820  0.80697484    -0.74600
O2448       O  0.85048048  0.73483758  0.79705236    -0.53510
C2449       C  0.84421675  0.69781459  0.81196478     0.79130
O2450       O  0.97418198  0.64770308  0.74920520    -0.59200
O2451       O  0.95804062  0.61802800  0.71344915    -0.52230
C2452       C  0.97611462  0.62466337  0.73035912     0.71140
O2453       O  0.94190198  0.74007570  0.79647055    -0.73760
O2454       O  0.90200868  0.73479138  0.80853359    -0.54320
C2455       C  0.92595726  0.73413107  0.81515033     0.77150
O2456       O  0.88127726  0.55481745  0.75900626    -0.58900
O2457       O  0.90796001  0.56343090  0.72291311    -0.52020
C2458       C  0.89439187  0.53985621  0.74148551     0.73740
Zr2459     Zr  0.87387980  0.62625866  0.77195403     2.54710
O2460       O  0.88840411  0.57875681  0.81531684    -0.79470
O2461       O  0.83301564  0.58853102  0.77331072    -0.92890
Zr2462     Zr  0.94140004  0.68754642  0.76684856     2.64680
O2463       O  0.94835887  0.63110524  0.80885002    -0.97840
O2464       O  0.98350341  0.71453054  0.77714354    -0.79900
O2465       O  0.89988796  0.68245070  0.78404715    -0.83260
O2466       O  0.91650334  0.62856900  0.75580577    -2.17970
O2467       O  0.85324541  0.63775083  0.67459700    -0.66650
O2468       O  0.89233445  0.60819755  0.67288212    -0.51210
C2469       C  0.86863092  0.61056651  0.66621856     0.72120
O2470       O  0.90982948  0.83973986  0.71510580    -0.59560
O2471       O  0.89209298  0.82528089  0.75684275    -0.51530
C2472       C  0.90137132  0.85211536  0.73654058     0.73920
O2473       O  0.95082951  0.73828373  0.67852161    -0.70950
O2474       O  0.93580112  0.67775432  0.66360810    -0.49630
C2475       C  0.94867187  0.71440387  0.66016068     0.75310
O2476       O  0.82170479  0.75185531  0.71334781    -0.66280
O2477       O  0.83839905  0.78553298  0.74746827    -0.53480
C2478       C  0.82045587  0.77942066  0.72991940     0.73690
Zr2479     Zr  0.85216373  0.70141347  0.69972774     2.77540
O2480       O  0.84358217  0.74984633  0.65484352    -0.97030
O2481       O  0.80941799  0.67235889  0.69572737    -0.77850
Zr2482     Zr  0.91625295  0.77002308  0.69813409     2.70070
O2483       O  0.89580587  0.80686861  0.65467159    -0.79100
O2484       O  0.94707472  0.82648250  0.67939749    -0.98180
Zr2485     Zr  0.87943919  0.74944682  0.76203475     2.21500
Zr2486     Zr  0.91481724  0.64291333  0.70630477     2.11130
O2487       O  0.89358839  0.70995203  0.68345511    -2.46870
O2488       O  0.87459319  0.76256589  0.71300966    -0.78890
O2489       O  0.87278689  0.63608615  0.72274593    -0.71090
O2490       O  0.92165562  0.75715306  0.74662042    -2.32040
O2491       O  0.85364030  0.69195988  0.74880154    -2.28250
O2492       O  0.93873058  0.70320755  0.71829223    -0.72850
H2493       H  0.92516812  0.60074829  0.76321692     0.79150
H2494       H  0.93112778  0.78148426  0.75194325     0.80240
H2495       H  0.89333893  0.71284973  0.66365015     0.82460
H2496       H  0.83667250  0.69260873  0.75520695     0.80070
H2497       H  0.98442871  0.74466164  0.76526329     0.43100
H2498       H  0.96357442  0.81559384  0.68842081     0.42080
H2499       H  0.89185322  0.83725573  0.65747292     0.41750
H2500       H  0.84845956  0.77999251  0.65773234     0.39690
H2501       H  0.80822190  0.64790506  0.71210383     0.42820
H2502       H  0.82042768  0.61284757  0.76777493     0.37600
H2503       H  0.90544355  0.56858208  0.81169347     0.43720
H2504       H  0.95786635  0.60702546  0.80299630     0.40130
H2505       H  0.85641155  0.74234841  0.64253000     0.45050
H2506       H  0.83049829  0.57725791  0.79321531     0.43780
H2507       H  0.96086489  0.64472295  0.82022837     0.43910
H2508       H  0.94842560  0.82437837  0.65977214     0.44270
O2509       O  0.58982346  0.41418387  0.80305024    -0.74600
O2510       O  0.59886250  0.48842550  0.79903353    -0.53510
C2511       C  0.58715603  0.45325587  0.81029605     0.79130
O2512       O  0.71719782  0.38182388  0.75033030    -0.59200
O2513       O  0.70060495  0.35392528  0.71399981    -0.52230
C2514       C  0.71856601  0.35827937  0.73163372     0.71140
O2515       O  0.68965038  0.47615001  0.79965175    -0.73760
O2516       O  0.65029606  0.47517613  0.81223149    -0.54320
C2517       C  0.67415861  0.46655827  0.81856349     0.77150
O2518       O  0.61866546  0.30719572  0.75234673    -0.58900
O2519       O  0.64968155  0.31212106  0.72125446    -0.52020
C2520       C  0.63296125  0.29008802  0.73657405     0.73740
Zr2521     Zr  0.61562787  0.37716419  0.76961741     2.54710
O2522       O  0.62790381  0.32179619  0.81061347    -0.79470
O2523       O  0.57315512  0.34550345  0.76980688    -0.92890
Zr2524     Zr  0.68699463  0.42640473  0.76845476     2.64680
O2525       O  0.69235119  0.36761022  0.80943349    -0.97840
O2526       O  0.73092014  0.44732890  0.77584186    -0.79900
O2527       O  0.64494942  0.42663484  0.78445604    -0.83260
O2528       O  0.65866596  0.37399520  0.75475447    -2.17970
O2529       O  0.59656509  0.39346122  0.67071755    -0.66650
O2530       O  0.63569964  0.36424310  0.66869776    -0.51210
C2531       C  0.61192837  0.36644268  0.66204610     0.72120
O2532       O  0.66130329  0.58541323  0.71564139    -0.59560
O2533       O  0.64209016  0.57552228  0.75683917    -0.51530
C2534       C  0.65231508  0.59985414  0.73591727     0.73920
O2535       O  0.70229401  0.47448472  0.68866153    -0.70950
O2536       O  0.68506931  0.42573905  0.66556860    -0.49630
C2537       C  0.70011723  0.45893764  0.66671111     0.75310
O2538       O  0.57325421  0.51097665  0.71149022    -0.66280
O2539       O  0.58851285  0.53567284  0.74996836    -0.53480
C2540       C  0.57171137  0.53421983  0.73042120     0.73690
Zr2541     Zr  0.60038958  0.45658610  0.69747212     2.77540
O2542       O  0.59467205  0.50693336  0.65276169    -0.97030
O2543       O  0.55677846  0.43423003  0.69003149    -0.77850
Zr2544     Zr  0.66746184  0.51501226  0.70091510     2.70070
O2545       O  0.65442085  0.55159363  0.65412344    -0.79100
O2546       O  0.70133095  0.56877942  0.68790663    -0.98180
Zr2547     Zr  0.62876165  0.49826126  0.76432432     2.21500
Zr2548     Zr  0.65970633  0.38984476  0.70526369     2.11130
O2549       O  0.64231817  0.46050489  0.68308739    -2.46870
O2550       O  0.62543561  0.51212235  0.71473316    -0.78890
O2551       O  0.61705627  0.38795657  0.72026172    -0.71090
O2552       O  0.67118452  0.50023840  0.74974279    -2.32040
O2553       O  0.60036196  0.44680231  0.74692176    -2.28250
O2554       O  0.68595929  0.44450688  0.72028974    -0.72850
H2555       H  0.66553762  0.34456551  0.76188744     0.79150
H2556       H  0.68137733  0.52320172  0.75578658     0.80240
H2557       H  0.64254152  0.46450351  0.66315792     0.82460
H2558       H  0.58325513  0.44937688  0.75250848     0.80070
H2559       H  0.73377295  0.47310515  0.76062944     0.43100
H2560       H  0.71628120  0.55617029  0.69956485     0.42080
H2561       H  0.64975228  0.58228165  0.65573664     0.41750
H2562       H  0.60543198  0.53312004  0.65421294     0.39690
H2563       H  0.55049608  0.45555946  0.67334618     0.42820
H2564       H  0.56171857  0.37163107  0.76463643     0.37600
H2565       H  0.64347703  0.30789479  0.80573445     0.43720
H2566       H  0.68846522  0.33928561  0.80330744     0.40130
H2567       H  0.60308892  0.49202092  0.63953523     0.45050
H2568       H  0.57021753  0.33364714  0.78955910     0.43780
H2569       H  0.71085511  0.36667973  0.81353335     0.43910
H2570       H  0.70537496  0.56607243  0.66893890     0.44270
O2571       O  0.60288012  0.89098091  0.80522762    -0.74600
O2572       O  0.59094533  0.96361225  0.79254847    -0.53510
C2573       C  0.59186055  0.92694066  0.80999592     0.79130
O2574       O  0.71894059  0.89013490  0.74567664    -0.59200
O2575       O  0.70535578  0.86678459  0.70677627    -0.52230
C2576       C  0.72192244  0.86791655  0.72649857     0.71140
O2577       O  0.68569927  0.95736260  0.80317181    -0.73760
O2578       O  0.64353479  0.95419318  0.80698877    -0.54320
C2579       C  0.66646133  0.94603423  0.81744947     0.77150
O2580       O  0.63758267  0.80036042  0.75049127    -0.58900
O2581       O  0.65916312  0.81695657  0.71041464    -0.52020
C2582       C  0.64939887  0.78960556  0.73060964     0.73740
Zr2583     Zr  0.62298251  0.86787905  0.76350349     2.54710
O2584       O  0.62818839  0.80869039  0.80436394    -0.79470
O2585       O  0.58133046  0.83818728  0.75388804    -0.92890
Zr2586     Zr  0.68875939  0.94278048  0.75744369     2.64680
O2587       O  0.72386158  0.93104206  0.79192354    -0.97840
O2588       O  0.71566393  0.00596371  0.73931869    -0.79900
O2589       O  0.64752212  0.92573912  0.77432717    -0.83260
O2590       O  0.66547909  0.88141065  0.74576012    -2.17970
O2591       O  0.60062613  0.88348577  0.66846697    -0.66650
O2592       O  0.64124256  0.86705656  0.66101196    -0.51210
C2593       C  0.61728095  0.86261774  0.65708537     0.72120
O2594       O  0.64209829  0.08676754  0.71442010    -0.59560
O2595       O  0.62771924  0.06871316  0.75747004    -0.51530
C2596       C  0.63348813  0.09780901  0.73600754     0.73920
O2597       O  0.68362672  0.01469259  0.66079925    -0.70950
O2598       O  0.68752828  0.94118183  0.65808045    -0.49630
C2599       C  0.69215416  0.98357944  0.65003296     0.75310
O2600       O  0.56491533  0.99167772  0.70940831    -0.66280
O2601       O  0.58033214  0.02081662  0.74623510    -0.53480
C2602       C  0.56318867  0.01645825  0.72755528     0.73690
Zr2603     Zr  0.59696201  0.94476630  0.69492985     2.77540
O2604       O  0.58823980  0.99389637  0.65029054    -0.97030
O2605       O  0.55511763  0.91181175  0.69146508    -0.77850
Zr2606     Zr  0.65625064  0.02379371  0.69569070     2.70070
O2607       O  0.63353187  0.06664999  0.65524604    -0.79100
O2608       O  0.68911195  0.08111117  0.69131286    -0.98180
Zr2609     Zr  0.62202951  0.98896842  0.76055570     2.21500
Zr2610     Zr  0.66307690  0.89815343  0.69671377     2.11130
O2611       O  0.63773590  0.96253508  0.67817405    -2.46870
O2612       O  0.61593719  0.00557715  0.71170559    -0.78890
O2613       O  0.62158743  0.88182932  0.71423365    -0.71090
O2614       O  0.66329184  0.00788369  0.74425928    -2.32040
O2615       O  0.59877426  0.93102845  0.74419115    -2.28250
O2616       O  0.68382362  0.96118427  0.70941989    -0.72850
H2617       H  0.67547364  0.85459011  0.74998990     0.79150
H2618       H  0.67074432  0.03252515  0.75138494     0.80240
H2619       H  0.63729353  0.96839733  0.65822196     0.82460
H2620       H  0.58185178  0.92774916  0.75095870     0.80070
H2621       H  0.72062553  0.01904450  0.75557537     0.43100
H2622       H  0.70537403  0.06470223  0.69322876     0.42080
H2623       H  0.61714244  0.07421846  0.66214476     0.41750
H2624       H  0.59398794  0.97712474  0.63648776     0.39690
H2625       H  0.55666284  0.88155923  0.70318663     0.42820
H2626       H  0.57229851  0.83665245  0.77117719     0.37600
H2627       H  0.61145563  0.79377583  0.80610561     0.43720
H2628       H  0.72299365  0.89943439  0.80135018     0.40130
H2629       H  0.56953218  0.99435482  0.64788552     0.45050
H2630       H  0.58445543  0.80659801  0.75296272     0.43780
H2631       H  0.73946990  0.93327172  0.78136384     0.43910
H2632       H  0.68787436  0.09648482  0.67168095     0.44270
O2633       O  0.72316641  0.06890309  0.42501995    -0.74600
O2634       O  0.72620261  0.99459576  0.42427398    -0.53510
C2635       C  0.71653913  0.03424814  0.41583399     0.79130
O2636       O  0.85257561  0.06424721  0.47132908    -0.59200
O2637       O  0.83911906  0.10266862  0.50334074    -0.52230
C2638       C  0.85573495  0.09167639  0.48761536     0.71140
O2639       O  0.81529999  0.96865276  0.42562266    -0.73760
O2640       O  0.77695871  0.93385541  0.42756710    -0.54320
C2641       C  0.79917288  0.94098288  0.41794711     0.77150
O2642       O  0.76032908  0.16220254  0.47108739    -0.58900
O2643       O  0.78803501  0.15161315  0.50839084    -0.52020
C2644       C  0.77355644  0.17617588  0.49025711     0.73740
Zr2645     Zr  0.75391218  0.09040859  0.45609582     2.54710
O2646       O  0.77000883  0.13253551  0.41321505    -0.79470
O2647       O  0.71671482  0.13858917  0.45100786    -0.92890
Zr2648     Zr  0.81772953  0.02311819  0.45647408     2.64680
O2649       O  0.82391723  0.07493424  0.41304086    -0.97840
O2650       O  0.85839016  0.98837696  0.45272512    -0.79900
O2651       O  0.77487222  0.03094668  0.44060007    -0.83260
O2652       O  0.79718629  0.08555909  0.46905745    -2.17970
O2653       O  0.74355446  0.07501845  0.54055305    -0.66650
O2654       O  0.77972502  0.07808682  0.56302261    -0.51210
C2655       C  0.75558044  0.07286970  0.56355794     0.72120
O2656       O  0.79056394  0.87655240  0.51946602    -0.59560
O2657       O  0.76475614  0.88486174  0.48023665    -0.51530
C2658       C  0.77745838  0.86114021  0.50067463     0.73920
O2659       O  0.82328182  0.98665474  0.56898540    -0.70950
O2660       O  0.83570578  0.05051312  0.54381932    -0.49630
C2661       C  0.83383508  0.02605864  0.56719549     0.75310
O2662       O  0.70233309  0.96037815  0.50827075    -0.66280
O2663       O  0.71576461  0.92971830  0.47301729    -0.53480
C2664       C  0.69938953  0.93513236  0.49038847     0.73690
Zr2665     Zr  0.73535229  0.00649001  0.52480936     2.77540
O2666       O  0.73056900  0.95476745  0.56870808    -0.97030
O2667       O  0.69364773  0.02980342  0.53544506    -0.77850
Zr2668     Zr  0.80320499  0.94891531  0.53043888     2.70070
O2669       O  0.79736821  0.89555821  0.57336900    -0.79100
O2670       O  0.84610577  0.92097394  0.52951702    -0.98180
Zr2671     Zr  0.75643755  0.96316226  0.46353095     2.21500
Zr2672     Zr  0.79788223  0.07349253  0.51814426     2.11130
O2673       O  0.77843857  0.00517279  0.54155383    -2.46870
O2674       O  0.75961490  0.94926463  0.51321900    -0.78890
O2675       O  0.75405647  0.07610868  0.50434389    -0.71090
O2676       O  0.79978308  0.95726031  0.48078967    -2.32040
O2677       O  0.73347488  0.02210755  0.47632535    -2.28250
O2678       O  0.82085996  0.01453631  0.50548292    -0.72850
H2679       H  0.80549864  0.11328898  0.46140975     0.79150
H2680       H  0.80800579  0.93202921  0.47584542     0.80240
H2681       H  0.77900545  0.00066212  0.56137291     0.82460
H2682       H  0.71583310  0.02256621  0.47030063     0.80070
H2683       H  0.85854043  0.96083188  0.46720973     0.43100
H2684       H  0.85633970  0.94786568  0.52262467     0.42080
H2685       H  0.78906170  0.91291870  0.58541161     0.41750
H2686       H  0.74620794  0.95673611  0.58011910     0.39690
H2687       H  0.68873271  0.05397880  0.51961218     0.42820
H2688       H  0.70226465  0.11821506  0.45617587     0.37600
H2689       H  0.76674413  0.11312791  0.39958463     0.43720
H2690       H  0.82516536  0.10473595  0.41802126     0.40130
H2691       H  0.71709718  0.96775452  0.57791947     0.45050
H2692       H  0.71405573  0.15000434  0.43088957     0.43780
H2693       H  0.84128541  0.06860444  0.40811817     0.43910
H2694       H  0.85162714  0.91187208  0.54923263     0.44270
O2695       O  0.73668891  0.57310396  0.42437822    -0.74600
O2696       O  0.73302914  0.49864155  0.42499873    -0.53510
C2697       C  0.72878608  0.54047838  0.41394705     0.79130
O2698       O  0.85309082  0.56156029  0.48844426    -0.59200
O2699       O  0.83887596  0.59837171  0.52099991    -0.52230
C2700       C  0.85567281  0.58905878  0.50485990     0.71140
O2701       O  0.81904378  0.46240012  0.44104851    -0.73760
O2702       O  0.78065520  0.43133866  0.43600598    -0.54320
C2703       C  0.80422270  0.43612040  0.43038310     0.77150
O2704       O  0.76778339  0.66108792  0.47545464    -0.58900
O2705       O  0.78891443  0.64694362  0.51718066    -0.52020
C2706       C  0.77847858  0.67333115  0.49654624     0.73740
Zr2707     Zr  0.75995738  0.58953298  0.46257830     2.54710
O2708       O  0.78089460  0.63582416  0.42420424    -0.79470
O2709       O  0.72113284  0.63354404  0.45475303    -0.92890
Zr2710     Zr  0.82134610  0.51484596  0.47244511     2.64680
O2711       O  0.83813320  0.55712449  0.42999759    -0.97840
O2712       O  0.86008956  0.47092426  0.48267020    -0.79900
O2713       O  0.78077158  0.52779032  0.45023088    -0.83260
O2714       O  0.80103985  0.57907008  0.48193653    -2.17970
O2715       O  0.73682931  0.57324175  0.55135985    -0.66650
O2716       O  0.77394701  0.57079666  0.57340511    -0.51210
C2717       C  0.74960269  0.56833057  0.57411025     0.72120
O2718       O  0.78530657  0.37126716  0.52635500    -0.59560
O2719       O  0.76065486  0.38366819  0.48595662    -0.51530
C2720       C  0.77255135  0.35826826  0.50634805     0.73920
O2721       O  0.81691187  0.47526888  0.58170086    -0.70950
O2722       O  0.83272132  0.53778916  0.55769892    -0.49630
C2723       C  0.82929564  0.51284061  0.58069030     0.75310
O2724       O  0.70248267  0.45898947  0.51526322    -0.66280
O2725       O  0.71389460  0.43686437  0.47639334    -0.53480
C2726       C  0.69843180  0.43773909  0.49565878     0.73690
Zr2727     Zr  0.73265326  0.51147719  0.52783356     2.77540
O2728       O  0.71903100  0.46740645  0.57130129    -0.97030
O2729       O  0.69284963  0.55127577  0.51625465    -0.77850
Zr2730     Zr  0.79691064  0.44166724  0.54147152     2.70070
O2731       O  0.78194837  0.39139424  0.58218541    -0.79100
O2732       O  0.83824043  0.40551904  0.54619035    -0.98180
Zr2733     Zr  0.75695052  0.46318499  0.46899143     2.21500
Zr2734     Zr  0.79675047  0.56789828  0.53051602     2.11130
O2735       O  0.77349273  0.50182028  0.55030168    -2.46870
O2736       O  0.75550500  0.45060029  0.51850032    -0.78890
O2737       O  0.75524907  0.57762883  0.51037219    -0.71090
O2738       O  0.79825462  0.45161465  0.49206700    -2.32040
O2739       O  0.73535444  0.52513794  0.47943028    -2.28250
O2740       O  0.81913986  0.50565386  0.52091747    -0.72850
H2741       H  0.81066250  0.60574592  0.47520087     0.79150
H2742       H  0.80627388  0.42561888  0.48790523     0.80240
H2743       H  0.77192470  0.49583366  0.57006718     0.82460
H2744       H  0.71847944  0.52796018  0.47089244     0.80070
H2745       H  0.85428856  0.43984014  0.48914322     0.43100
H2746       H  0.84648423  0.41362361  0.56290367     0.42080
H2747       H  0.79760930  0.37903545  0.59256189     0.41750
H2748       H  0.72683270  0.43768240  0.57248879     0.39690
H2749       H  0.69771997  0.58109923  0.50589605     0.42820
H2750       H  0.70722414  0.61180168  0.45401876     0.37600
H2751       H  0.79352817  0.61576475  0.41883829     0.43720
H2752       H  0.83618683  0.58877745  0.43139948     0.40130
H2753       H  0.70066676  0.46242995  0.56824167     0.45050
H2754       H  0.72184559  0.65086846  0.43560931     0.43780
H2755       H  0.85664095  0.55187218  0.43217328     0.43910
H2756       H  0.83452832  0.37321253  0.55172382     0.44270
O2757       O  0.97586222  0.30996866  0.42812085    -0.74600
O2758       O  0.98728091  0.24217613  0.42026117    -0.53510
C2759       C  0.97614322  0.28076331  0.41305125     0.79130
O2760       O  0.60164271  0.31405516  0.47959706    -0.59200
O2761       O  0.58885857  0.33687508  0.51791434    -0.52230
C2762       C  0.60500573  0.33526243  0.49933142     0.71140
O2763       O  0.56922098  0.21586146  0.43043465    -0.73760
O2764       O  0.53203832  0.17798937  0.42997424    -0.54320
C2765       C  0.55429685  0.18791550  0.42099727     0.77150
O2766       O  0.50895295  0.39845066  0.47992011    -0.58900
O2767       O  0.54023162  0.39038519  0.51328486    -0.52020
C2768       C  0.52385380  0.41385367  0.49709734     0.73740
Zr2769     Zr  0.50593041  0.33110728  0.46031707     2.54710
O2770       O  0.52586288  0.37679787  0.42097205    -0.79470
O2771       O  0.97085431  0.38394392  0.44867579    -0.92890
Zr2772     Zr  0.57102545  0.26377095  0.46560499     2.64680
O2773       O  0.58909003  0.30820012  0.42454778    -0.97840
O2774       O  0.60805100  0.21546641  0.47574852    -0.79900
O2775       O  0.52944941  0.27408605  0.44562329    -0.83260
O2776       O  0.54843389  0.32530329  0.47664548    -2.17970
O2777       O  0.98361131  0.31702443  0.54097223    -0.66650
O2778       O  0.51974634  0.32441011  0.56354246    -0.51210
C2779       C  0.99548910  0.32063763  0.56330734     0.72120
O2780       O  0.53893259  0.11606817  0.52234849    -0.59560
O2781       O  0.51702595  0.12822605  0.48044884    -0.51530
C2782       C  0.52745550  0.10259878  0.50164378     0.73920
O2783       O  0.57225022  0.22072771  0.57663918    -0.70950
O2784       O  0.56739052  0.29655124  0.56798890    -0.49630
C2785       C  0.57546013  0.26042172  0.58308993     0.75310
O2786       O  0.95553943  0.19335213  0.51264063    -0.66280
O2787       O  0.96752440  0.17537830  0.47243161    -0.53480
C2788       C  0.95233008  0.17405486  0.49210938     0.73690
Zr2789     Zr  0.98428517  0.24632529  0.52680891     2.77540
O2790       O  0.97958751  0.20274959  0.57337897    -0.97030
O2791       O  0.93897735  0.25834137  0.52811295    -0.77850
Zr2792     Zr  0.55123664  0.18751398  0.53637382     2.70070
O2793       O  0.54020442  0.13502786  0.57800541    -0.79100
O2794       O  0.59335965  0.15512481  0.53817606    -0.98180
Zr2795     Zr  0.50931474  0.20627465  0.46505668     2.21500
Zr2796     Zr  0.54539820  0.31179991  0.52539365     2.11130
O2797       O  0.52583595  0.24371794  0.54713060    -2.46870
O2798       O  0.00936010  0.19060743  0.51483134    -0.78890
O2799       O  0.00274104  0.31648518  0.50826282    -0.71090
O2800       O  0.55115788  0.19804985  0.48656366    -2.32040
O2801       O  0.98468537  0.26277208  0.47810268    -2.28250
O2802       O  0.57094680  0.25402621  0.51484423    -0.72850
H2803       H  0.55703815  0.35321596  0.47013608     0.79150
H2804       H  0.55983860  0.17324197  0.48163726     0.80240
H2805       H  0.52543272  0.24093466  0.56689777     0.82460
H2806       H  0.96736333  0.26271692  0.47100701     0.80070
H2807       H  0.61443855  0.21374938  0.45745788     0.43100
H2808       H  0.60502221  0.18097497  0.53672148     0.42080
H2809       H  0.52211295  0.14113537  0.58018960     0.41750
H2810       H  0.98666709  0.22104533  0.58630193     0.39690
H2811       H  0.93432246  0.27738300  0.50993504     0.42820
H2812       H  0.95528646  0.36620869  0.45324567     0.37600
H2813       H  0.54235480  0.36224211  0.41994816     0.43720
H2814       H  0.58820177  0.33957040  0.42696052     0.40130
H2815       H  0.96111848  0.20208444  0.57603529     0.45050
H2816       H  0.97007820  0.39293721  0.42826616     0.43780
H2817       H  0.60738617  0.30086361  0.42644961     0.43910
H2818       H  0.59594581  0.13883046  0.55751323     0.44270
O2819       O  0.97361860  0.81288254  0.42479556    -0.74600
O2820       O  0.97484176  0.73801398  0.42547126    -0.53510
C2821       C  0.96550804  0.77791944  0.41686258     0.79130
O2822       O  0.60203759  0.81342502  0.47297323    -0.59200
O2823       O  0.58878658  0.84472057  0.50842425    -0.52230
C2824       C  0.60511776  0.83852375  0.49096266     0.71140
O2825       O  0.56839047  0.71020121  0.42641563    -0.73760
O2826       O  0.52863814  0.68063918  0.42635384    -0.54320
C2827       C  0.55144605  0.68432061  0.41809961     0.77150
O2828       O  0.51588778  0.90504319  0.46744677    -0.58900
O2829       O  0.53795700  0.89106955  0.50855233    -0.52020
C2830       C  0.52726394  0.91766208  0.48819805     0.73740
Zr2831     Zr  0.50494068  0.83238735  0.45615758     2.54710
O2832       O  0.51657796  0.87667335  0.41186350    -0.79470
O2833       O  0.96600228  0.87338249  0.45794865    -0.92890
Zr2834     Zr  0.56965484  0.76578353  0.45723244     2.64680
O2835       O  0.57683241  0.81470615  0.41300733    -0.97840
O2836       O  0.61117078  0.73176177  0.45732456    -0.79900
O2837       O  0.52670304  0.77407019  0.44055185    -0.83260
O2838       O  0.54792976  0.82626277  0.47043957    -2.17970
O2839       O  0.98934982  0.81197635  0.54448869    -0.66650
O2840       O  0.52700207  0.81130455  0.56453279    -0.51210
C2841       C  0.50290449  0.80771966  0.56657958     0.72120
O2842       O  0.54214803  0.61780110  0.51679916    -0.59560
O2843       O  0.51265309  0.62875635  0.48089820    -0.51530
C2844       C  0.52684056  0.60363472  0.49917168     0.73920
O2845       O  0.57457741  0.72680872  0.56862405    -0.70950
O2846       O  0.58487411  0.79511159  0.54640177    -0.49630
C2847       C  0.58421994  0.76667910  0.56849354     0.75310
O2848       O  0.95531138  0.69696185  0.50957903    -0.66280
O2849       O  0.96740506  0.66979171  0.47244171    -0.53480
C2850       C  0.95212822  0.67250068  0.49144926     0.73690
Zr2851     Zr  0.98596361  0.74728057  0.52444328     2.77540
O2852       O  0.97944794  0.69548497  0.56793204    -0.97030
O2853       O  0.94287888  0.77012516  0.53031915    -0.77850
Zr2854     Zr  0.55408814  0.68946552  0.52988487     2.70070
O2855       O  0.54619154  0.63852510  0.57312298    -0.79100
O2856       O  0.59650387  0.65884986  0.53012869    -0.98180
Zr2857     Zr  0.50727678  0.70683458  0.46271485     2.21500
Zr2858     Zr  0.54741706  0.81301569  0.51955390     2.11130
O2859       O  0.52872499  0.74400710  0.54204480    -2.46870
O2860       O  0.51067297  0.69138164  0.51225398    -0.78890
O2861       O  0.50414831  0.81769735  0.50462090    -0.71090
O2862       O  0.55067930  0.69969504  0.48019144    -2.32040
O2863       O  0.98433748  0.76450110  0.47608446    -2.28250
O2864       O  0.57173274  0.75593701  0.50632071    -0.72850
H2865       H  0.55636737  0.85411255  0.46335046     0.79150
H2866       H  0.55866824  0.67443760  0.47503009     0.80240
H2867       H  0.52922764  0.73747860  0.56192568     0.82460
H2868       H  0.96662697  0.76473429  0.47035816     0.80070
H2869       H  0.61081665  0.70497821  0.47235005     0.43100
H2870       H  0.60795582  0.68382886  0.53243868     0.42080
H2871       H  0.52752025  0.63828509  0.57419076     0.41750
H2872       H  0.99470679  0.69713557  0.57997648     0.39690
H2873       H  0.93847394  0.79194164  0.51312309     0.42820
H2874       H  0.95329931  0.85026111  0.46479728     0.37600
H2875       H  0.51746292  0.85488057  0.39952619     0.43720
H2876       H  0.56920330  0.84361325  0.41443859     0.40130
H2877       H  0.96565803  0.70867825  0.57658403     0.45050
H2878       H  0.96052584  0.88518654  0.43845893     0.43780
H2879       H  0.59532385  0.82025174  0.41329505     0.43910
H2880       H  0.59832696  0.63732692  0.54794499     0.44270
C2881       C  0.52533441  0.55477594  0.49904645    -0.04650
C2882       C  0.51880741  0.53983455  0.47404002    -0.01760
C2883       C  0.51774328  0.49398582  0.47358594     0.03230
C2884       C  0.52266016  0.46206006  0.49805979    -0.04650
C2885       C  0.52801571  0.47664678  0.52321160    -0.01750
C2886       C  0.52971801  0.52255867  0.52364563     0.03220
C2887       C  0.51334603  0.57082119  0.44808968     0.37870
C2888       C  0.53137071  0.44459821  0.54909021     0.37860
C2889       C  0.53542468  0.53582469  0.54987318     0.36290
C2890       C  0.51234452  0.48023185  0.44735827     0.36290
N2891       N  0.54014349  0.54503129  0.57113923    -0.38530
N2892       N  0.00787426  0.46989719  0.42634206    -0.38530
N2893       N  0.53428407  0.41950700  0.56983315    -0.37980
N2894       N  0.00838944  0.59405704  0.42706173    -0.37980
C2895       C  0.52780746  0.96578161  0.48996353    -0.04650
C2896       C  0.50617551  0.99275917  0.48213406    -0.01760
C2897       C  0.50557556  0.03639274  0.48735386     0.03230
C2898       C  0.52665023  0.05403426  0.50066286    -0.04650
C2899       C  0.54828331  0.02684924  0.50863788    -0.01750
C2900       C  0.54921339  0.98377327  0.50238650     0.03220
C2901       C  0.48424869  0.97648627  0.46833427     0.37870
C2902       C  0.57018339  0.04338045  0.52234894     0.37860
C2903       C  0.57301566  0.95941263  0.50719595     0.36290
C2904       C  0.48300620  0.06288066  0.47810557     0.36290
N2905       N  0.59225909  0.94089948  0.51105577    -0.38530
N2906       N  0.96480063  0.08248532  0.46963552    -0.38530
N2907       N  0.58770937  0.05585674  0.53353148    -0.37980
N2908       N  0.46642522  0.96550420  0.45694638    -0.37980
C2909       C  0.67429788  0.41207010  0.49600826    -0.04650
C2910       C  0.67297379  0.37221070  0.48547528    -0.01760
C2911       C  0.65114729  0.34538590  0.48880994     0.03230
C2912       C  0.62916979  0.36037699  0.49979003    -0.04650
C2913       C  0.63012503  0.40088485  0.50944877    -0.01750
C2914       C  0.65269569  0.42571661  0.50848079     0.03220
C2915       C  0.69405074  0.35764761  0.47147893     0.37870
C2916       C  0.60778862  0.41825833  0.51991637     0.37860
C2917       C  0.65283422  0.46563999  0.52030535     0.36290
C2918       C  0.65217404  0.30135008  0.48191153     0.36290
N2919       N  0.65185208  0.49650712  0.53052906    -0.38530
N2920       N  0.65384949  0.26643153  0.47638404    -0.38530
N2921       N  0.59025220  0.43262541  0.52835415    -0.37980
N2922       N  0.71054452  0.34580391  0.46004329    -0.37980
C2923       C  0.87984062  0.61257557  0.50318352    -0.04650
C2924       C  0.88431129  0.64374271  0.47872680    -0.01760
C2925       C  0.90893656  0.65925134  0.47322771     0.03230
C2926       C  0.92868724  0.64652071  0.49316515    -0.04650
C2927       C  0.92443701  0.61448174  0.51733948    -0.01750
C2928       C  0.90001395  0.59683079  0.52213341     0.03220
C2929       C  0.86348788  0.65977337  0.45914273     0.37870
C2930       C  0.94549942  0.59840243  0.53652524     0.37860
C2931       C  0.89587127  0.56145906  0.54585848     0.36290
C2932       C  0.91398633  0.68665260  0.44660802     0.36290
N2933       N  0.89279345  0.53298721  0.56470432    -0.38530
N2934       N  0.91756026  0.70697587  0.42477773    -0.38530
N2935       N  0.96242089  0.58540107  0.55158062    -0.37980
N2936       N  0.84688369  0.67295870  0.44368284    -0.37980
C2937       C  0.62931029  0.86280890  0.49098062    -0.04650
C2938       C  0.64651100  0.85401475  0.51409307    -0.01760
C2939       C  0.66903755  0.87894269  0.51423062     0.03230
C2940       C  0.67550492  0.90978900  0.49029715    -0.04650
C2941       C  0.65961228  0.91460606  0.46615855    -0.01750
C2942       C  0.63592368  0.89324555  0.46701195     0.03220
C2943       C  0.64254484  0.81650009  0.53649840     0.37870
C2944       C  0.66792915  0.93911539  0.43994756     0.37860
C2945       C  0.61826891  0.90295304  0.44321539     0.36290
C2946       C  0.68662914  0.86999586  0.53812756     0.36290
N2947       N  0.60419391  0.91115662  0.42428503    -0.38530
N2948       N  0.70073812  0.86255158  0.55706839    -0.38530
N2949       N  0.67413710  0.95665064  0.41834413    -0.37980
N2950       N  0.64060136  0.78582517  0.55423715    -0.37980
C2951       C  0.77747061  0.81222261  0.50179117    -0.04650
C2952       C  0.80037828  0.78770392  0.50714171    -0.01760
C2953       C  0.80082287  0.74243800  0.50495412     0.03230
C2954       C  0.77832851  0.72113248  0.49783052    -0.04650
C2955       C  0.75533647  0.74496834  0.49353669    -0.01750
C2956       C  0.75493827  0.79037653  0.49511389     0.03220
C2957       C  0.82392554  0.80928490  0.51338878     0.37870
C2958       C  0.73170658  0.72239937  0.48874148     0.37860
C2959       C  0.73098466  0.81395715  0.48995466     0.36290
C2960       C  0.82472728  0.71840029  0.50925317     0.36290
N2961       N  0.71149266  0.83136440  0.48531648    -0.38530
N2962       N  0.84396153  0.69985764  0.51288924    -0.38530
N2963       N  0.71268202  0.70488749  0.48518095    -0.37980
N2964       N  0.84284923  0.82597893  0.51839049    -0.37980
C2965       C  0.77241853  0.22388942  0.49233570    -0.04650
C2966       C  0.79457959  0.25024722  0.48893542    -0.01760
C2967       C  0.79476300  0.29383471  0.49429678     0.03230
C2968       C  0.77323660  0.31051672  0.50473735    -0.04650
C2969       C  0.75132895  0.28374403  0.50911361    -0.01750
C2970       C  0.75055576  0.24129284  0.50177654     0.03220
C2971       C  0.81726121  0.23286182  0.47959060     0.37870
C2972       C  0.73007062  0.29913592  0.52226500     0.37860
C2973       C  0.72725930  0.21573576  0.50368047     0.36290
C2974       C  0.81697490  0.32194135  0.48843091     0.36290
N2975       N  0.70850897  0.19576637  0.50448056    -0.38530
N2976       N  0.83465635  0.34429413  0.48358428    -0.38530
N2977       N  0.71328790  0.31107383  0.53322588    -0.37980
N2978       N  0.83569715  0.21964644  0.47239061    -0.37980
C2979       C  0.88075738  0.11152887  0.48839655    -0.04650
C2980       C  0.88627175  0.15024473  0.46895210    -0.01760
C2981       C  0.90922149  0.17224801  0.47168100     0.03230
C2982       C  0.92827460  0.15124808  0.49040588    -0.04650
C2983       C  0.92350036  0.11079153  0.50876972    -0.01750
C2984       C  0.89941141  0.09122213  0.50811645     0.03220
C2985       C  0.86901553  0.16624275  0.44549227     0.37870
C2986       C  0.94315909  0.08993730  0.52849138     0.37860
C2987       C  0.89418483  0.04956931  0.52694431     0.36290
C2988       C  0.91202420  0.21857062  0.45805098     0.36290
N2989       N  0.89034128  0.01617574  0.54193333    -0.38530
N2990       N  0.91404896  0.25611699  0.44837836    -0.38530
N2991       N  0.95887574  0.07325081  0.54412600    -0.37980
N2992       N  0.85556281  0.17868868  0.42643322    -0.37980
C2993       C  0.70862398  0.00130895  0.62693635    -0.04650
C2994       C  0.73508885  0.99690249  0.63074002    -0.01760
C2995       C  0.75122117  0.02179365  0.61121357     0.03230
C2996       C  0.74125223  0.05481321  0.58903208    -0.04650
C2997       C  0.71490137  0.06351418  0.58802971    -0.01750
C2998       C  0.69863676  0.03515518  0.60542533     0.03220
C2999       C  0.74588335  0.96924782  0.65585567     0.37870
C3000       C  0.70434836  0.10261678  0.56953219     0.37860
C3001       C  0.67139692  0.04180405  0.60165923     0.36290
C3002       C  0.77765530  0.01076389  0.61414090     0.36290
N3003       N  0.64972098  0.04716861  0.59853026    -0.38530
N3004       N  0.79820139  0.99813817  0.61844606    -0.38530
N3005       N  0.69556726  0.13384824  0.55518400    -0.37980
N3006       N  0.75474976  0.94843121  0.67613617    -0.37980
C3007       C  0.60804270  0.83354434  0.63703744    -0.04650
C3008       C  0.58695570  0.84784440  0.61929496    -0.01760
C3009       C  0.58179047  0.82865851  0.59606554     0.03230
C3010       C  0.59197762  0.78633213  0.59379186    -0.04650
C3011       C  0.61137578  0.76870853  0.61348554    -0.01750
C3012       C  0.62082374  0.79406897  0.63335435     0.03220
C3013       C  0.57156897  0.88555808  0.62284015     0.37870
C3014       C  0.62309550  0.72672842  0.61179262     0.37860
C3015       C  0.64405302  0.77988034  0.64919822     0.36290
C3016       C  0.56884439  0.85789966  0.57336155     0.36290
N3017       N  0.66287855  0.76857090  0.66135532    -0.38530
N3018       N  0.55893302  0.88534909  0.55704559    -0.38530
N3019       N  0.63247885  0.69315207  0.61046462    -0.37980
N3020       N  0.55885283  0.91508567  0.62528307    -0.37980
C3021       C  0.73619869  0.54876278  0.60023822    -0.04650
C3022       C  0.74966682  0.53173442  0.62537862    -0.01760
C3023       C  0.73861081  0.49919741  0.64600609     0.03230
C3024       C  0.71331237  0.48460448  0.64241632    -0.04650
C3025       C  0.69887831  0.50599582  0.61884575    -0.01750
C3026       C  0.70980974  0.53960680  0.59886608     0.03220
C3027       C  0.77270581  0.55336283  0.63244834     0.37870
C3028       C  0.67228734  0.49546820  0.61536390     0.37860
C3029       C  0.69323551  0.56678413  0.57806184     0.36290
C3030       C  0.75316866  0.48198968  0.67150163     0.36290
N3031       N  0.67959521  0.58880374  0.56212470    -0.38530
N3032       N  0.76477385  0.46873635  0.69186441    -0.38530
N3033       N  0.65096249  0.48862585  0.61174432    -0.37980
N3034       N  0.79012951  0.57145718  0.63998671    -0.37980
C3035       C  0.59020897  0.27079069  0.60815354    -0.04650
C3036       C  0.57853321  0.26871200  0.63369917    -0.01760
C3037       C  0.58553231  0.29918297  0.65155139     0.03230
C3038       C  0.60270568  0.33500349  0.64309558    -0.04650
C3039       C  0.61472761  0.33587738  0.61794148    -0.01750
C3040       C  0.61007362  0.30227145  0.60215039     0.03220
C3041       C  0.55879710  0.23595579  0.64119288     0.37870
C3042       C  0.63058041  0.37344563  0.60675232     0.37860
C3043       C  0.62483784  0.30178099  0.57816692     0.36290
C3044       C  0.57501722  0.29366607  0.67856583     0.36290
N3045       N  0.63698768  0.30092876  0.55938331    -0.38530
N3046       N  0.56682934  0.28907785  0.70027968    -0.38530
N3047       N  0.64278290  0.40339808  0.59670018    -0.37980
N3048       N  0.54305466  0.20964723  0.64711791    -0.37980
C3049       C  0.65262111  0.64854707  0.73398021    -0.04650
C3050       C  0.63482500  0.67514118  0.71590106    -0.01760
C3051       C  0.63299363  0.72097974  0.71597226     0.03230
C3052       C  0.65123921  0.74147453  0.73103556    -0.04650
C3053       C  0.66981792  0.71526756  0.74816938    -0.01750
C3054       C  0.67008505  0.66855637  0.75019903     0.03220
C3055       C  0.61799961  0.65518836  0.69766275     0.37870
C3056       C  0.68813465  0.73615999  0.76429240     0.37860
C3057       C  0.68843190  0.64116156  0.76865225     0.36290
C3058       C  0.61119299  0.74612768  0.70243363     0.36290
N3059       N  0.70304076  0.61928239  0.78341565    -0.38530
N3060       N  0.59342206  0.76564550  0.69222214    -0.38530
N3061       N  0.70279282  0.75256003  0.77726699    -0.37980
N3062       N  0.60465080  0.63935411  0.68304820    -0.37980
C3063       C  0.63041518  0.24128952  0.73573336    -0.04650
C3064       C  0.62123954  0.20989152  0.75831345    -0.01760
C3065       C  0.62105481  0.16357596  0.75801578     0.03230
C3066       C  0.63070812  0.14732729  0.73546795    -0.04650
C3067       C  0.63756131  0.17945084  0.71179471    -0.01750
C3068       C  0.63776419  0.22542844  0.71212711     0.03220
C3069       C  0.61232460  0.22439761  0.78249026     0.37870
C3070       C  0.64383840  0.16672030  0.68601916     0.37860
C3071       C  0.64594676  0.25577803  0.68749796     0.36290
C3072       C  0.60968532  0.13352314  0.78072040     0.36290
N3073       N  0.65317696  0.27810816  0.66762588    -0.38530
N3074       N  0.60006403  0.11063200  0.79888490    -0.38530
N3075       N  0.64876576  0.15808496  0.66510329    -0.37980
N3076       N  0.60496778  0.23518732  0.80188686    -0.37980
C3077       C  0.85840370  0.58266754  0.64600441    -0.04650
C3078       C  0.84176519  0.60318168  0.62448014    -0.01760
C3079       C  0.83334512  0.58038748  0.60362605     0.03230
C3080       C  0.83797588  0.53382505  0.60517614    -0.04650
C3081       C  0.85492506  0.51295806  0.62678931    -0.01750
C3082       C  0.86632282  0.53800104  0.64590062     0.03220
C3083       C  0.83427822  0.64974716  0.62221048     0.37870
C3084       C  0.86253335  0.46720882  0.62779513     0.37860
C3085       C  0.88766195  0.51890477  0.66354829     0.36290
C3086       C  0.82123088  0.60842750  0.57994551     0.36290
N3087       N  0.90526595  0.50378875  0.67678813    -0.38530
N3088       N  0.81267160  0.63629889  0.56294129    -0.38530
N3089       N  0.86869154  0.43066641  0.62860908    -0.37980
N3090       N  0.82771992  0.68644283  0.61968234    -0.37980
C3091       C  0.96198335  0.73207431  0.63453505    -0.04650
C3092       C  0.98845775  0.72859663  0.63482363    -0.01760
C3093       C  0.50258442  0.75605314  0.61436296     0.03230
C3094       C  0.99030463  0.78802555  0.59307611    -0.04650
C3095       C  0.96362262  0.79307407  0.59411928    -0.01750
C3096       C  0.94957005  0.76367233  0.61364923     0.03220
C3097       C  0.50119921  0.69502053  0.65576855     0.37870
C3098       C  0.95036684  0.82900337  0.57528306     0.37860
C3099       C  0.92211823  0.76452151  0.61136004     0.36290
C3100       C  0.52952104  0.74866129  0.61563538     0.36290
N3101       N  0.90024400  0.76467395  0.60867751    -0.38530
N3102       N  0.55062020  0.73882874  0.61924337    -0.38530
N3103       N  0.93975366  0.85762865  0.56032201    -0.37980
N3104       N  0.51170889  0.66790452  0.67189813    -0.37980
C3105       C  0.50079612  0.60301803  0.72880897    -0.04650
C3106       C  0.52377632  0.62514313  0.73362666    -0.01760
C3107       C  0.54706750  0.60262826  0.73490420     0.03230
C3108       C  0.54764239  0.55852422  0.73020558    -0.04650
C3109       C  0.52461927  0.53609266  0.72622104    -0.01750
C3110       C  0.50142633  0.55856290  0.72469197     0.03220
C3111       C  0.52379871  0.67184078  0.73594241     0.37870
C3112       C  0.52428306  0.48802307  0.72788225     0.37860
C3113       C  0.97821995  0.53468795  0.71998801     0.36290
C3114       C  0.56999146  0.62398400  0.74307475     0.36290
N3115       N  0.95993303  0.51548206  0.71584978    -0.38530
N3116       N  0.58782208  0.64110096  0.75065382    -0.38530
N3117       N  0.52342599  0.44959383  0.73012465    -0.37980
N3118       N  0.52421612  0.70920599  0.73741337    -0.37980
C3119       C  0.79597521  0.80450905  0.72888198    -0.04650
C3120       C  0.78217976  0.81884860  0.70337871    -0.01760
C3121       C  0.75756722  0.83712996  0.70257065     0.03230
C3122       C  0.74650083  0.84302756  0.72723615    -0.04650
C3123       C  0.76008132  0.82756548  0.75273328    -0.01750
C3124       C  0.78487021  0.81030850  0.75344812     0.03220
C3125       C  0.79364197  0.81723496  0.67745204     0.37870
C3126       C  0.74806931  0.82547661  0.77880324     0.37860
C3127       C  0.79856671  0.79873021  0.77995197     0.36290
C3128       C  0.74383575  0.84944216  0.67603883     0.36290
N3129       N  0.80876019  0.79120580  0.80155976    -0.38530
N3130       N  0.73298404  0.85889206  0.65482345    -0.38530
N3131       N  0.73912393  0.82201157  0.80006276    -0.37980
N3132       N  0.80227481  0.81680033  0.65640585    -0.37980
C3133       C  0.85411281  0.09559019  0.63612629    -0.04650
C3134       C  0.84601141  0.11926928  0.60998812    -0.01760
C3135       C  0.84019404  0.09686613  0.58797339     0.03230
C3136       C  0.84172564  0.04892099  0.59140179    -0.04650
C3137       C  0.85045197  0.02534424  0.61774350    -0.01750
C3138       C  0.85560321  0.04824609  0.64002799     0.03220
C3139       C  0.84400628  0.16774924  0.60534635     0.37870
C3140       C  0.85427615  0.97746316  0.62204012     0.37860
C3141       C  0.85966336  0.02232486  0.66758220     0.36290
C3142       C  0.83361762  0.12573855  0.56170891     0.36290
N3143       N  0.86152886  0.00026672  0.68943791    -0.38530
N3144       N  0.82940675  0.15218743  0.54184136    -0.38530
N3145       N  0.85735135  0.93922796  0.62553346    -0.37980
N3146       N  0.84213960  0.20626240  0.60109570    -0.37980
C3147       C  0.95968302  0.25450401  0.63583280    -0.04650
C3148       C  0.98281380  0.27790171  0.63889500    -0.01760
C3149       C  0.99416893  0.30354332  0.61556913     0.03230
C3150       C  0.98140901  0.30988184  0.58949176    -0.04650
C3151       C  0.95561378  0.29699455  0.58840857    -0.01750
C3152       C  0.94563615  0.26605595  0.61044861     0.03220
C3153       C  0.99397201  0.27974314  0.66595242     0.37870
C3154       C  0.93871196  0.31899975  0.56599182     0.37860
C3155       C  0.92030722  0.24852384  0.60728636     0.36290
C3156       C  0.51780900  0.32676116  0.61890564     0.36290
N3157       N  0.90014885  0.23452017  0.60446272    -0.38530
N3158       N  0.53639673  0.34600131  0.62168684    -0.38530
N3159       N  0.92507023  0.33734223  0.54849084    -0.37980
N3160       N  0.00251649  0.28434066  0.68716580    -0.37980
C3161       C  0.99524623  0.09383571  0.72668294    -0.04650
C3162       C  0.51840832  0.11508334  0.71906415    -0.01760
C3163       C  0.54037004  0.08959089  0.71837216     0.03230
C3164       C  0.53968040  0.04270164  0.72670336    -0.04650
C3165       C  0.51688039  0.02143597  0.73569928    -0.01750
C3166       C  0.99487839  0.04708208  0.73633448     0.03220
C3167       C  0.52029866  0.16322333  0.71384548     0.37870
C3168       C  0.51629349  0.97332007  0.74508881     0.37860
C3169       C  0.97292636  0.02623251  0.75010867     0.36290
C3170       C  0.56350236  0.11172283  0.70829338     0.36290
N3171       N  0.95580778  0.00974619  0.76199178    -0.38530
N3172       N  0.58164069  0.12986549  0.69974327    -0.38530
N3173       N  0.51587366  0.93491116  0.75249347    -0.37980
N3174       N  0.02275510  0.20148418  0.71060937    -0.37980
C3175       C  0.89828003  0.99427310  0.73588766    -0.04650
C3176       C  0.91655595  0.97655099  0.72062430    -0.01760
C3177       C  0.91908799  0.93008519  0.72308213     0.03230
C3178       C  0.90150263  0.90053941  0.73783789    -0.04650
C3179       C  0.88315178  0.91799928  0.75303564    -0.01750
C3180       C  0.88188520  0.96414600  0.75251010     0.03220
C3181       C  0.93292604  0.00531436  0.70184063     0.37870
C3182       C  0.86496119  0.88910342  0.76927759     0.37860
C3183       C  0.86244573  0.97985729  0.76824632     0.36290
C3184       C  0.94107295  0.91320532  0.71181612     0.36290
N3185       N  0.84691425  0.99148530  0.78103835    -0.38530
N3186       N  0.95920328  0.90130624  0.70313704    -0.38530
N3187       N  0.85056101  0.86653201  0.78254013    -0.37980
N3188       N  0.94590555  0.02769867  0.68657055    -0.37980
C3189       C  0.89452094  0.40032329  0.73971823    -0.04650
C3190       C  0.87438560  0.42772187  0.72655594    -0.01760
C3191       C  0.87350976  0.47295192  0.72871491     0.03230
C3192       C  0.89357459  0.49140765  0.74256318    -0.04650
C3193       C  0.91322650  0.46378589  0.75655324    -0.01750
C3194       C  0.91359004  0.41807729  0.75532161     0.03220
C3195       C  0.85468707  0.40946436  0.71061188     0.37870
C3196       C  0.93272236  0.48235313  0.77259804     0.37860
C3197       C  0.93365358  0.38940140  0.76983106     0.36290
C3198       C  0.85214925  0.50066542  0.71643428     0.36290
N3199       N  0.94960764  0.36644276  0.78146751    -0.38530
N3200       N  0.83508018  0.52269871  0.70672118    -0.38530
N3201       N  0.94817928  0.49734901  0.78541284    -0.37980
N3202       N  0.83904547  0.39507238  0.69772908    -0.37980
C3203       C  0.74306818  0.33565220  0.73068496    -0.04650
C3204       C  0.75543076  0.33910411  0.70559004    -0.01760
C3205       C  0.78028203  0.32256632  0.70570890     0.03230
C3206       C  0.79305064  0.30267844  0.73093112    -0.04650
C3207       C  0.78098071  0.30129804  0.75600155    -0.01750
C3208       C  0.75570115  0.31516121  0.75571581     0.03220
C3209       C  0.74287605  0.35975407  0.67952911     0.37870
C3210       C  0.79432883  0.28691833  0.78246884     0.37860
C3211       C  0.74231189  0.30532090  0.78125097     0.36290
C3212       C  0.79314737  0.32843884  0.67987845     0.36290
N3213       N  0.73218334  0.29579696  0.80186865    -0.38530
N3214       N  0.80325198  0.33375083  0.65918178    -0.38530
N3215       N  0.80428181  0.27752532  0.80413173    -0.37980
N3216       N  0.73321156  0.37556553  0.65842185    -0.37980
C3217       C  0.96459037  0.66276582  0.88893530    -0.04650
C3218       C  0.93783581  0.65992900  0.88646685    -0.01760
C3219       C  0.92450283  0.68341501  0.86276806     0.03230
C3220       C  0.93651146  0.71768231  0.84414790    -0.04650
C3221       C  0.96179049  0.72890156  0.85116671    -0.01750
C3222       C  0.97617109  0.70040965  0.87239941     0.03220
C3223       C  0.92339705  0.63479333  0.90870514     0.37870
C3224       C  0.97343975  0.76891065  0.83576608     0.37860
C3225       C  0.50260776  0.71092701  0.87712463     0.36290
C3226       C  0.89970395  0.66670913  0.85682546     0.36290
N3227       N  0.52367814  0.71971779  0.88079600    -0.38530
N3228       N  0.88052218  0.64926958  0.85425642    -0.38530
N3229       N  0.48270741  0.80083982  0.82355100    -0.37980
N3230       N  0.91139769  0.61622393  0.92645164    -0.37980
C3231       C  0.57171766  0.46114302  0.83433082    -0.04650
C3232       C  0.57823700  0.43900473  0.86138101    -0.01760
C3233       C  0.57945606  0.46244763  0.88352130     0.03230
C3234       C  0.56773679  0.50541579  0.88106097    -0.04650
C3235       C  0.55639588  0.52405110  0.85475569    -0.01750
C3236       C  0.55869853  0.50239776  0.83187633     0.03220
C3237       C  0.57920632  0.39071435  0.86751683     0.37870
C3238       C  0.54251045  0.56582370  0.85064473     0.37860
C3239       C  0.54465032  0.51990195  0.80645933     0.36290
C3240       C  0.59450403  0.44212060  0.90792782     0.36290
N3241       N  0.53176268  0.53402260  0.78730970    -0.38530
N3242       N  0.60727116  0.42548185  0.92672246    -0.38530
N3243       N  0.53139663  0.59913225  0.84718566    -0.37980
N3244       N  0.57943150  0.35203793  0.87286033    -0.37980
C3245       C  0.96089650  0.10206579  0.86888139    -0.04650
C3246       C  0.93483145  0.09975446  0.86318330    -0.01760
C3247       C  0.92113151  0.13824098  0.84954187     0.03230
C3248       C  0.93388757  0.17872798  0.83827452    -0.04650
C3249       C  0.96055258  0.18005697  0.84364478    -0.01750
C3250       C  0.97389700  0.14132710  0.85695399     0.03220
C3251       C  0.92228122  0.05701607  0.87109816     0.37870
C3252       C  0.97454561  0.22154683  0.83606357     0.37860
C3253       C  0.50139285  0.14179607  0.85908894     0.36290
C3254       C  0.89405771  0.13608887  0.85139389     0.36290
N3255       N  0.52332051  0.14193782  0.86038725    -0.38530
N3256       N  0.87296569  0.12984949  0.85609013    -0.38530
N3257       N  0.98572830  0.25457890  0.83011732    -0.37980
N3258       N  0.91256627  0.02245763  0.87651634    -0.37980
C3259       C  0.58208490  0.93182815  0.83763963    -0.04650
C3260       C  0.56150295  0.90696030  0.85018102    -0.01760
C3261       C  0.54918824  0.92020695  0.87259674     0.03230
C3262       C  0.55758956  0.95823433  0.88329913    -0.04650
C3263       C  0.57897087  0.98174045  0.87120103    -0.01750
C3264       C  0.59034024  0.96969310  0.84844984     0.03220
C3265       C  0.55195056  0.86948403  0.83885623     0.37870
C3266       C  0.58946891  0.02034678  0.88090827     0.37860
C3267       C  0.60952858  0.99976918  0.83490934     0.36290
C3268       C  0.52792214  0.89431275  0.88456370     0.36290
N3269       N  0.62417203  0.02538197  0.82450451    -0.38530
N3270       N  0.51088642  0.87350375  0.89394546    -0.38530
N3271       N  0.59904621  0.05081436  0.88777832    -0.37980
N3272       N  0.54430869  0.83961619  0.82971367    -0.37980
C3273       C  0.51376279  0.82890513  0.96935022    -0.04650
C3274       C  0.53490635  0.80088913  0.97958549    -0.01760
C3275       C  0.53495320  0.75525083  0.97750658     0.03230
C3276       C  0.51423612  0.73658183  0.96478227    -0.04650
C3277       C  0.49341366  0.76420957  0.95393959    -0.01750
C3278       C  0.49309423  0.80990675  0.95614477     0.03220
C3279       C  0.55702207  0.81834868  0.99231813     0.37870
C3280       C  0.97188777  0.74515449  0.94118511     0.37860
C3281       C  0.47077070  0.83644382  0.94582637     0.36290
C3282       C  0.55599141  0.72668847  0.98979611     0.36290
N3283       N  0.95291894  0.85737786  0.93761449    -0.38530
N3284       N  0.57267349  0.70393623  0.99981268    -0.38530
N3285       N  0.95454565  0.73028809  0.93103794    -0.37980
N3286       N  0.57492112  0.83114418  0.00267668    -0.37980
C3287       C  0.51372758  0.32040254  0.00948383    -0.04650
C3288       C  0.49978150  0.30717061  0.98752520    -0.01760
C3289       C  0.49807186  0.26180446  0.98589138     0.03230
C3290       C  0.51027887  0.22843704  0.00663472    -0.04650
C3291       C  0.52114735  0.24197593  0.03068087    -0.01750
C3292       C  0.52307204  0.28784222  0.03182870     0.03220
C3293       C  0.48663347  0.34062623  0.96662278     0.37870
C3294       C  0.53027265  0.20948439  0.05458699     0.37860
C3295       C  0.53525350  0.30160649  0.05569867     0.36290
C3296       C  0.48334988  0.25079740  0.96259130     0.36290
N3297       N  0.54482889  0.31263495  0.07478657    -0.38530
N3298       N  0.47156889  0.24309623  0.94377483    -0.38530
N3299       N  0.53737316  0.18383448  0.07388209    -0.37980
N3300       N  0.47606806  0.36716401  0.95009588    -0.37980
C3301       C  0.80664356  0.72554564  0.88366177    -0.04650
C3302       C  0.83228097  0.73752000  0.87860902    -0.01760
C3303       C  0.84322678  0.73114493  0.85441060     0.03230
C3304       C  0.83160505  0.70315715  0.83769329    -0.04650
C3305       C  0.80698872  0.68705614  0.84382166    -0.01750
C3306       C  0.79411900  0.69960804  0.86590776     0.03220
C3307       C  0.84838880  0.75697162  0.89778543     0.37870
C3308       C  0.79397602  0.66146099  0.82567054     0.37860
C3309       C  0.76789291  0.68631816  0.86955315     0.36290
C3310       C  0.86532672  0.75833905  0.84605422     0.36290
N3311       N  0.74692666  0.67565668  0.87222143    -0.38530
N3312       N  0.88194195  0.78313436  0.84096619    -0.38530
N3313       N  0.78355529  0.64132232  0.81103175    -0.37980
N3314       N  0.86208911  0.77261601  0.91214128    -0.37980
C3315       C  0.67118765  0.91156413  0.84327551    -0.04650
C3316       C  0.66881992  0.92064077  0.86976401    -0.01760
C3317       C  0.67492723  0.88719484  0.89334653     0.03230
C3318       C  0.68842583  0.84773405  0.89093441    -0.04650
C3319       C  0.68961824  0.83787144  0.86451047    -0.01750
C3320       C  0.68001939  0.86854830  0.84123637     0.03220
C3321       C  0.66179077  0.96492407  0.87315135     0.37870
C3322       C  0.69979709  0.79530297  0.86098722     0.37860
C3323       C  0.67941165  0.85372821  0.81549371     0.36290
C3324       C  0.66461892  0.89212210  0.91923028     0.36290
N3325       N  0.68006395  0.83564104  0.79721868    -0.38530
N3326       N  0.65499887  0.89635513  0.93913253    -0.38530
N3327       N  0.70770659  0.76146766  0.85792716    -0.37980
N3328       N  0.65695129  0.00026803  0.87657348    -0.37980
C3329       C  0.66485296  0.68295984  0.96442537    -0.04650
C3330       C  0.64590834  0.69711046  0.94368999    -0.01760
C3331       C  0.62196201  0.67604577  0.94521758     0.03230
C3332       C  0.61670984  0.64155892  0.96819243    -0.04650
C3333       C  0.63619711  0.62901149  0.98939461    -0.01750
C3334       C  0.66040754  0.64726994  0.98620738     0.03220
C3335       C  0.65069094  0.73400216  0.92114999     0.37870
C3336       C  0.63190232  0.60037267  0.01601336     0.37860
C3337       C  0.68099618  0.62936113  0.00583106     0.36290
C3338       C  0.60253566  0.69242180  0.92400067     0.36290
N3339       N  0.69725788  0.61425228  0.02123071    -0.38530
N3340       N  0.58711818  0.70585378  0.90707370    -0.38530
N3341       N  0.62931800  0.57900353  0.03782038    -0.37980
N3342       N  0.65382465  0.76323807  0.90280028    -0.37980
C3343       C  0.85632032  0.90860836  0.98606204    -0.04650
C3344       C  0.87775173  0.88774876  0.00107108    -0.01760
C3345       C  0.90260606  0.90039402  0.99295150     0.03230
C3346       C  0.90675162  0.93732962  0.97119957    -0.04650
C3347       C  0.88528557  0.96127431  0.95801160    -0.01750
C3348       C  0.86037071  0.94580336  0.96438226     0.03220
C3349       C  0.87430932  0.85506401  0.02599372     0.37870
C3350       C  0.88865928  0.00452849  0.94021122     0.37860
C3351       C  0.83875819  0.97005985  0.94970885     0.36290
C3352       C  0.92420529  0.87708547  0.00836787     0.36290
N3353       N  0.82149642  0.98937102  0.93802791    -0.38530
N3354       N  0.94143136  0.85862180  0.02068223    -0.38530
N3355       N  0.89098955  0.03982757  0.92678170    -0.37980
N3356       N  0.87147663  0.83039556  0.04655809    -0.37980
C3357       C  0.80626286  0.22232602  0.88541427    -0.04650
C3358       C  0.83176615  0.23506787  0.87930608    -0.01760
C3359       C  0.84392177  0.22222448  0.85716846     0.03230
C3360       C  0.83159219  0.19555881  0.83997887    -0.04650
C3361       C  0.80648959  0.18177571  0.84605002    -0.01750
C3362       C  0.79391625  0.19492192  0.86837908     0.03220
C3363       C  0.84622526  0.26369768  0.89464814     0.37870
C3364       C  0.79289339  0.15687499  0.82794372     0.37860
C3365       C  0.76782540  0.18142586  0.87273336     0.36290
C3366       C  0.86926927  0.23974295  0.85178953     0.36290
N3367       N  0.74693487  0.17070672  0.87600899    -0.38530
N3368       N  0.88899225  0.25651685  0.84955871    -0.38530
N3369       N  0.78202507  0.13721821  0.81334214    -0.37980
N3370       N  0.85837005  0.28690321  0.90590160    -0.37980
C3371       C  0.70262681  0.35871908  0.88554791    -0.04650
C3372       C  0.67667636  0.36947981  0.88256031    -0.01760
C3373       C  0.66746807  0.40292459  0.86043094     0.03230
C3374       C  0.68372606  0.43431300  0.84484311    -0.04650
C3375       C  0.71027208  0.42680587  0.85065348    -0.01750
C3376       C  0.71930832  0.38676973  0.86835983     0.03220
C3377       C  0.65893462  0.34494047  0.90158416     0.37870
C3378       C  0.72860022  0.45946272  0.83822238     0.37860
C3379       C  0.74567110  0.37416211  0.86823833     0.36290
C3380       C  0.64258932  0.39625071  0.84999099     0.36290
N3381       N  0.76664606  0.36407587  0.86738017    -0.38530
N3382       N  0.62355310  0.38569524  0.84124744    -0.38530
N3383       N  0.74333155  0.48558834  0.82859669    -0.37980
N3384       N  0.64458959  0.32643320  0.91687376    -0.37980
C3385       C  0.66249931  0.17818990  0.98041449    -0.04650
C3386       C  0.64374113  0.18711273  0.95887336    -0.01760
C3387       C  0.61865759  0.17102603  0.96329540     0.03230
C3388       C  0.61201552  0.14505345  0.98921907    -0.04650
C3389       C  0.63047563  0.13825324  0.01098296    -0.01750
C3390       C  0.65577997  0.15197688  0.00619890     0.03220
C3391       C  0.65023882  0.21261146  0.93212529     0.37870
C3392       C  0.62302608  0.12033053  0.03876820     0.37860
C3393       C  0.67524387  0.13712675  0.02763294     0.36290
C3394       C  0.59911159  0.18439375  0.94177365     0.36290
N3395       N  0.69069165  0.12412455  0.04460080    -0.38530
N3396       N  0.58360276  0.19633177  0.92467910    -0.38530
N3397       N  0.61665169  0.10840210  0.06109317    -0.37980
N3398       N  0.65555391  0.23221789  0.91061153    -0.37980
C3399       C  0.76364734  0.58486993  0.98512411    -0.04650
C3400       C  0.74071906  0.56341094  0.97971083    -0.01760
C3401       C  0.73792220  0.51694377  0.98928269     0.03230
C3402       C  0.75858060  0.49048950  0.00248477    -0.04650
C3403       C  0.78129299  0.51195549  0.00849160    -0.01750
C3404       C  0.78418478  0.55837338  0.99886966     0.03220
C3405       C  0.72009758  0.58841657  0.96356870     0.37870
C3406       C  0.80180319  0.48655695  0.02468397     0.37860
C3407       C  0.80901021  0.57827880  0.00164437     0.36290
C3408       C  0.71320763  0.49662742  0.98675226     0.36290
N3409       N  0.82889902  0.59384730  0.00360872    -0.38530
N3410       N  0.69330764  0.48097294  0.98510997    -0.38530
N3411       N  0.81807105  0.46662261  0.03796560    -0.37980
N3412       N  0.70370356  0.60758929  0.95009464    -0.37980
C3413       C  0.76515479  0.08617847  0.98556752    -0.04650
C3414       C  0.78513266  0.05807066  0.99910803    -0.01760
C3415       C  0.78243996  0.01109340  0.00451622     0.03230
C3416       C  0.76004254  0.99126749  0.99583783    -0.04650
C3417       C  0.74025997  0.01949519  0.98194474    -0.01750
C3418       C  0.74294648  0.06634550  0.97653799     0.03220
C3419       C  0.80907826  0.07711904  0.00669170     0.37870
C3420       C  0.71628222  0.00148302  0.97374283     0.37860
C3421       C  0.72229202  0.09378231  0.96199781     0.36290
C3422       C  0.80320329  0.98341932  0.01842706     0.36290
N3423       N  0.70573685  0.11489254  0.95010295    -0.38530
N3424       N  0.81984650  0.96188220  0.02976744    -0.38530
N3425       N  0.69643405  0.99079422  0.96658915    -0.37980
N3426       N  0.82826285  0.09183334  0.01282419    -0.37980
C3427       C  0.86521217  0.38910881  0.00713945    -0.04650
C3428       C  0.86941405  0.43497736  0.99733251    -0.01760
C3429       C  0.89406526  0.45288869  0.99869270     0.03230
C3430       C  0.91537380  0.42436811  0.00668435    -0.04650
C3431       C  0.91108562  0.37854871  0.01733360    -0.01750
C3432       C  0.88604504  0.36124601  0.01807586     0.03220
C3433       C  0.84881022  0.46321177  0.98365954     0.37870
C3434       C  0.93238012  0.34877250  0.02628090     0.37860
C3435       C  0.88174062  0.31421352  0.02905217     0.36290
C3436       C  0.89729137  0.50106456  0.99246358     0.36290
N3437       N  0.87821980  0.27673136  0.03786493    -0.38530
N3438       N  0.89966702  0.53951920  0.98790610    -0.38530
N3439       N  0.94939663  0.32501827  0.03339983    -0.37980
N3440       N  0.83262971  0.48574119  0.97213414    -0.37980
C3441       C  0.69169121  0.70427880  0.13680876    -0.04650
C3442       C  0.71093596  0.68630232  0.12340727    -0.01760
C3443       C  0.72618500  0.71475515  0.10401478     0.03230
C3444       C  0.72353484  0.76210279  0.09854822    -0.04650
C3445       C  0.70403031  0.77986310  0.11141352    -0.01750
C3446       C  0.68750049  0.75156053  0.12872517     0.03220
C3447       C  0.71443675  0.63855114  0.12831548     0.37870
C3448       C  0.70011986  0.82802685  0.10560952     0.37860
C3449       C  0.66496685  0.77233429  0.13604450     0.36290
C3450       C  0.74482894  0.69478585  0.08981754     0.36290
N3451       N  0.64759025  0.79240949  0.14013389    -0.38530
N3452       N  0.75950962  0.67764616  0.07879716    -0.38530
N3453       N  0.69699914  0.86631302  0.10094745    -0.37980
N3454       N  0.71731317  0.60042273  0.13119237    -0.37980
C3455       C  0.58238290  0.53917836  0.14659128    -0.04650
C3456       C  0.59073027  0.49791595  0.14084522    -0.01760
C3457       C  0.57750661  0.47717647  0.12073837     0.03230
C3458       C  0.55496367  0.49581063  0.10637932    -0.04650
C3459       C  0.54514663  0.53399939  0.11440031    -0.01750
C3460       C  0.55902319  0.55644849  0.13306259     0.03220
C3461       C  0.61273099  0.47585559  0.15585740     0.37870
C3462       C  0.52050022  0.55097945  0.10367872     0.37860
C3463       C  0.54938901  0.59912596  0.13681639     0.36290
C3464       C  0.58691183  0.43562443  0.11503067     0.36290
N3465       N  0.54135045  0.63315950  0.13933133    -0.38530
N3466       N  0.59422830  0.40226586  0.11055606    -0.38530
N3467       N  0.50060267  0.56555220  0.09681920    -0.37980
N3468       N  0.63021464  0.45762754  0.16772726    -0.37980
C3469       C  0.71353006  0.55707748  0.38773923    -0.04650
C3470       C  0.68761420  0.54689000  0.38529066    -0.01760
C3471       C  0.67111542  0.57639287  0.36665201     0.03230
C3472       C  0.67949093  0.61899747  0.35265552    -0.04650
C3473       C  0.70549280  0.62916216  0.35623209    -0.01750
C3474       C  0.72250047  0.59655972  0.37068379     0.03220
C3475       C  0.67799634  0.50604056  0.40183891     0.37870
C3476       C  0.71496562  0.67374947  0.34546600     0.37860
C3477       C  0.74957791  0.60461971  0.36904707     0.36290
C3478       C  0.64642296  0.56055995  0.36039859     0.36290
N3479       N  0.77111909  0.61099942  0.36728538    -0.38530
N3480       N  0.62715785  0.54558575  0.35531218    -0.38530
N3481       N  0.72240982  0.70941984  0.33712029    -0.37980
N3482       N  0.67038813  0.47334885  0.41500970    -0.37980
C3483       C  0.56665223  0.60958552  0.35349520    -0.04650
C3484       C  0.55011435  0.64683003  0.34917057    -0.01760
C3485       C  0.54825459  0.67365104  0.36915722     0.03230
C3486       C  0.55771835  0.65834906  0.39635524    -0.04650
C3487       C  0.56958812  0.61575590  0.40274814    -0.01750
C3488       C  0.57438152  0.59176837  0.38133793     0.03220
C3489       C  0.53514917  0.65794102  0.32364798     0.37870
C3490       C  0.57707158  0.59690608  0.43120134     0.37860
C3491       C  0.58387912  0.54655250  0.38861629     0.36290
C3492       C  0.53910700  0.71916174  0.36090031     0.36290
N3493       N  0.59070405  0.50988793  0.39516967    -0.38530
N3494       N  0.53299355  0.75618354  0.35426582    -0.38530
N3495       N  0.58300146  0.58177015  0.45393940    -0.37980
N3496       N  0.52203618  0.66617593  0.30400551    -0.37980
C3497       C  0.69651957  0.18615804  0.13237611    -0.04650
C3498       C  0.72308544  0.18457604  0.13119025    -0.01760
C3499       C  0.73678002  0.22002657  0.11453827     0.03230
C3500       C  0.72418792  0.25899522  0.09919911    -0.04650
C3501       C  0.69741720  0.26052687  0.10162608    -0.01750
C3502       C  0.68384915  0.22318993  0.11556162     0.03220
C3503       C  0.73634493  0.14622675  0.14752013     0.37870
C3504       C  0.68348173  0.30164724  0.09104793     0.37860
C3505       C  0.65630616  0.22442315  0.11460279     0.36290
C3506       C  0.76387600  0.21599846  0.11517017     0.36290
N3507       N  0.63438610  0.22537181  0.11385884    -0.38530
N3508       N  0.78536544  0.20910248  0.11798845    -0.38530
N3509       N  0.67236606  0.33445638  0.08286966    -0.37980
N3510       N  0.74685320  0.11527474  0.16024923    -0.37980
C3511       C  0.58005881  0.99505825  0.09833637    -0.04650
C3512       C  0.60464416  0.01280805  0.09824435    -0.01760
C3513       C  0.61386292  0.03414868  0.11975304     0.03230
C3514       C  0.59829999  0.03827753  0.14193615    -0.04650
C3515       C  0.57485206  0.01478349  0.14371931    -0.01750
C3516       C  0.56654832  0.99159889  0.12258887     0.03220
C3517       C  0.62026056  0.00863234  0.07555170     0.37870
C3518       C  0.56015310  0.01209933  0.16807398     0.37860
C3519       C  0.54571165  0.96021305  0.12652975     0.36290
C3520       C  0.63908919  0.05310979  0.11817446     0.36290
N3521       N  0.52994746  0.93333534  0.12935419    -0.38530
N3522       N  0.65929746  0.06807162  0.11684135    -0.38530
N3523       N  0.54866895  0.01029862  0.18765953    -0.37980
N3524       N  0.63259187  0.00481841  0.05739824    -0.37980
C3525       C  0.63990813  0.92472194  0.24887826    -0.04650
C3526       C  0.65021068  0.89588983  0.27285437    -0.01760
C3527       C  0.64705032  0.84898195  0.27630150     0.03230
C3528       C  0.63245861  0.83098191  0.25652273    -0.04650
C3529       C  0.62092214  0.86008963  0.23360070    -0.01750
C3530       C  0.62566623  0.90620149  0.22920400     0.03220
C3531       C  0.66476105  0.91441877  0.29349700     0.37870
C3532       C  0.60318164  0.84279935  0.21493199     0.37860
C3533       C  0.61586328  0.93422788  0.20407752     0.36290
C3534       C  0.65933659  0.81931841  0.29964142     0.36290
N3535       N  0.60828869  0.95505286  0.18330600    -0.38530
N3536       N  0.66915739  0.79552069  0.31822235    -0.38530
N3537       N  0.58853281  0.82963791  0.20034990    -0.37980
N3538       N  0.67643671  0.92929138  0.30989230    -0.37980
C3539       C  0.63310211  0.42821538  0.23973456    -0.04650
C3540       C  0.61360929  0.39991430  0.25233483    -0.01760
C3541       C  0.61589926  0.35312900  0.25638507     0.03230
C3542       C  0.63736821  0.33392745  0.24730982    -0.04650
C3543       C  0.65704023  0.36189287  0.23548523    -0.01750
C3544       C  0.65451677  0.40854244  0.23086552     0.03220
C3545       C  0.59046969  0.41818663  0.26038851     0.37870
C3546       C  0.68088221  0.34321004  0.22960795     0.37860
C3547       C  0.67429654  0.43572137  0.21680693     0.36290
C3548       C  0.59582378  0.32515470  0.26974268     0.36290
N3549       N  0.69007211  0.45649187  0.20488817    -0.38530
N3550       N  0.57972451  0.30355365  0.28066340    -0.38530
N3551       N  0.70046847  0.33034522  0.22509233    -0.37980
N3552       N  0.57174645  0.43123508  0.26715241    -0.37980
C3553       C  0.67935624  0.12043332  0.35158397    -0.04650
C3554       C  0.70329693  0.10015092  0.34997797    -0.01760
C3555       C  0.70956960  0.05872800  0.36693376     0.03230
C3556       C  0.69810869  0.04575104  0.39208461    -0.04650
C3557       C  0.67556182  0.06816512  0.39612911    -0.01750
C3558       C  0.66579290  0.10437184  0.37564146     0.03220
C3559       C  0.72356841  0.12405874  0.33459454     0.37870
C3560       C  0.66388018  0.05654073  0.42263249     0.37860
C3561       C  0.64547457  0.13073727  0.38263276     0.36290
C3562       C  0.72980802  0.03167969  0.36007734     0.36290
N3563       N  0.63030954  0.15190699  0.39026682    -0.38530
N3564       N  0.74511886  0.00893324  0.35410345    -0.38530
N3565       N  0.65464271  0.04730542  0.44381161    -0.37980
N3566       N  0.74075508  0.14261885  0.32394997    -0.37980
C3567       C  0.56336217  0.16845308  0.39710219    -0.04650
C3568       C  0.56165258  0.12223849  0.39577083    -0.01760
C3569       C  0.57124882  0.10573839  0.37292676     0.03230
C3570       C  0.58344084  0.13485694  0.35149241    -0.04650
C3571       C  0.58596032  0.18068065  0.35395858    -0.01750
C3572       C  0.57489366  0.19732088  0.37530631     0.03220
C3573       C  0.55019540  0.09139985  0.41790547     0.37870
C3574       C  0.60192375  0.21142805  0.33591733     0.37860
C3575       C  0.57470426  0.24535191  0.37391498     0.36290
C3576       C  0.56824254  0.05913716  0.37135448     0.36290
N3577       N  0.57456627  0.28370516  0.37215201    -0.38530
N3578       N  0.56584573  0.02186085  0.37010349    -0.38530
N3579       N  0.61483385  0.23695377  0.32253940    -0.37980
N3580       N  0.54108281  0.06632891  0.43545427    -0.37980
C3581       C  0.84756704  0.80288136  0.14259415    -0.04650
C3582       C  0.82249100  0.78663455  0.14568162    -0.01760
C3583       C  0.81097715  0.76440645  0.12590945     0.03230
C3584       C  0.82411788  0.75818038  0.10281652    -0.04650
C3585       C  0.85038096  0.76524536  0.10310469    -0.01750
C3586       C  0.86205762  0.78926156  0.12203284     0.03220
C3587       C  0.80874765  0.79033561  0.16994994     0.37870
C3588       C  0.86519829  0.74646095  0.08421308     0.37860
C3589       C  0.88863309  0.80075970  0.11941807     0.36290
C3590       C  0.78697756  0.74269103  0.13176938     0.36290
N3591       N  0.90989575  0.80955543  0.11722003    -0.38530
N3592       N  0.76873193  0.72433913  0.13966917    -0.38530
N3593       N  0.87695307  0.73089158  0.06930176    -0.37980
N3594       N  0.79762789  0.79251932  0.18928633    -0.37980
C3595       C  0.95495300  0.94241571  0.13680243    -0.04650
C3596       C  0.94076458  0.95375834  0.11167392    -0.01760
C3597       C  0.94779599  0.99083619  0.09132539     0.03230
C3598       C  0.97162633  0.01285581  0.09348359    -0.04650
C3599       C  0.98510406  0.00320717  0.11908997    -0.01750
C3600       C  0.97710788  0.96809355  0.14039989     0.03220
C3601       C  0.91693249  0.93088213  0.10817645     0.37870
C3602       C  0.00422683  0.03477345  0.12490642     0.37860
C3603       C  0.99032628  0.96114647  0.16722600     0.36290
C3604       C  0.92855862  0.00885508  0.07028467     0.36290
N3605       N  0.00064476  0.95586279  0.18874551    -0.38530
N3606       N  0.91224437  0.02232049  0.05451765    -0.38530
N3607       N  0.51874722  0.06159502  0.12900355    -0.37980
N3608       N  0.89784352  0.91311979  0.10530216    -0.37980
C3609       C  0.98921223  0.78405289  0.23358224    -0.04650
C3610       C  0.98750744  0.73779148  0.23428044    -0.01760
C3611       C  0.50881647  0.71053195  0.24222691     0.03230
C3612       C  0.53207484  0.72940157  0.24952439    -0.04650
C3613       C  0.53354761  0.77525959  0.24991863    -0.01750
C3614       C  0.01260437  0.80287002  0.24059980     0.03220
C3615       C  0.96355475  0.71724043  0.22867201     0.37870
C3616       C  0.55617380  0.79408708  0.26081778     0.37860
C3617       C  0.01535401  0.85077302  0.23833266     0.36290
C3618       C  0.50597782  0.66243228  0.24527195     0.36290
N3619       N  0.01823362  0.88877981  0.23673586    -0.38530
N3620       N  0.50265560  0.62428673  0.24835297    -0.38530
N3621       N  0.57372635  0.80932287  0.27033379    -0.37980
N3622       N  0.94470883  0.69983099  0.22446221    -0.37980
C3623       C  0.79257411  0.00071875  0.24094345    -0.04650
C3624       C  0.79051134  0.04756768  0.23412504    -0.01760
C3625       C  0.76631698  0.06782583  0.23031445     0.03230
C3626       C  0.74406352  0.04118202  0.23279036    -0.04650
C3627       C  0.74629097  0.99424416  0.23972324    -0.01750
C3628       C  0.77040856  0.97417293  0.24417618     0.03220
C3629       C  0.81325406  0.07471702  0.23068759     0.37870
C3630       C  0.72379227  0.96645965  0.24329692     0.37860
C3631       C  0.77248670  0.92595187  0.25291288     0.36290
C3632       C  0.76434120  0.11615421  0.22336856     0.36290
N3633       N  0.77416074  0.88758418  0.26008021    -0.38530
N3634       N  0.76280097  0.15471483  0.21773188    -0.38530
N3635       N  0.70594043  0.94407079  0.24603826    -0.37980
N3636       N  0.83143534  0.09629140  0.22798350    -0.37980
C3637       C  0.80558407  0.92164800  0.39345671    -0.04650
C3638       C  0.80568207  0.95111541  0.36787356    -0.01760
C3639       C  0.81099270  0.93564432  0.34380693     0.03230
C3640       C  0.82103467  0.89192460  0.34498299    -0.04650
C3641       C  0.82047043  0.86163112  0.37072991    -0.01750
C3642       C  0.81187840  0.87609836  0.39467119     0.03220
C3643       C  0.80150713  0.99869964  0.36635264     0.37870
C3644       C  0.82988156  0.81661891  0.37298846     0.37860
C3645       C  0.81099611  0.84486603  0.42076028     0.36290
C3646       C  0.80669889  0.96708296  0.31803935     0.36290
N3647       N  0.81025504  0.81960563  0.44152066    -0.38530
N3648       N  0.80246129  0.99548149  0.29922224    -0.38530
N3649       N  0.83741292  0.78062265  0.37478647    -0.37980
N3650       N  0.79861595  0.03659691  0.36511683    -0.37980
C3651       C  0.92959482  0.86301411  0.35246779    -0.04650
C3652       C  0.95152349  0.83673807  0.35071640    -0.01760
C3653       C  0.95494041  0.79502306  0.36833422     0.03230
C3654       C  0.94553685  0.78861148  0.39451260    -0.04650
C3655       C  0.92473977  0.81575359  0.39837183    -0.01750
C3656       C  0.91552806  0.85057979  0.37655462     0.03220
C3657       C  0.97297165  0.85366585  0.33457063     0.37870
C3658       C  0.91404868  0.80949699  0.42534565     0.37860
C3659       C  0.89386425  0.87690731  0.38051375     0.36290
C3660       C  0.97005186  0.76031742  0.36084427     0.36290
N3661       N  0.87672925  0.89828939  0.38383331    -0.38530
N3662       N  0.48069785  0.73112694  0.35463986    -0.38530
N3663       N  0.90558097  0.80443072  0.44694039    -0.37980
N3664       N  0.99136478  0.86540787  0.32346243    -0.37980
C3665       C  0.82437371  0.27846730  0.10070929    -0.04650
C3666       C  0.83952805  0.24747808  0.11955795    -0.01760
C3667       C  0.84947107  0.25895285  0.14453298     0.03230
C3668       C  0.84603551  0.30267890  0.14956453    -0.04650
C3669       C  0.83189853  0.33380694  0.13003091    -0.01750
C3670       C  0.81939017  0.32077592  0.10745099     0.03220
C3671       C  0.84502895  0.20431111  0.11324134     0.37870
C3672       C  0.83140212  0.38082336  0.13172936     0.37860
C3673       C  0.80134359  0.35236950  0.09130038     0.36290
C3674       C  0.86272090  0.22564726  0.16509088     0.36290
N3675       N  0.78726379  0.37863129  0.07909577    -0.38530
N3676       N  0.87302151  0.19866125  0.18154510    -0.38530
N3677       N  0.83086558  0.41858088  0.13200598    -0.37980
N3678       N  0.84935142  0.16977846  0.10819484    -0.37980
C3679       C  0.95599377  0.48301818  0.08912695    -0.04650
C3680       C  0.96566753  0.44054077  0.10363011    -0.01760
C3681       C  0.95349831  0.41639971  0.12651076     0.03230
C3682       C  0.93057845  0.43200537  0.13382954    -0.04650
C3683       C  0.91926113  0.47108006  0.11741334    -0.01750
C3684       C  0.93255332  0.49774643  0.09613274     0.03220
C3685       C  0.98678725  0.41839074  0.09413178     0.37870
C3686       C  0.89357248  0.48335283  0.12206610     0.37860
C3687       C  0.92130013  0.53861589  0.08029054     0.36290
C3688       C  0.96470648  0.37553566  0.14263326     0.36290
N3689       N  0.91227225  0.57121776  0.06774838    -0.38530
N3690       N  0.97359835  0.34294716  0.15536555    -0.38530
N3691       N  0.87300528  0.49336812  0.12523310    -0.37980
N3692       N  0.00275411  0.39780163  0.08728829    -0.37980
C3693       C  0.99073920  0.28441156  0.23994807    -0.04650
C3694       C  0.51230674  0.30589329  0.22753597    -0.01760
C3695       C  0.53546441  0.28234789  0.22861569     0.03230
C3696       C  0.53734117  0.23722645  0.24245127    -0.04650
C3697       C  0.51583917  0.21584853  0.25510402    -0.01750
C3698       C  0.99275158  0.23941532  0.25407561     0.03220
C3699       C  0.01076258  0.35249320  0.21383280     0.37870
C3700       C  0.51767898  0.16967448  0.26961397     0.37860
C3701       C  0.97134095  0.21785380  0.26865169     0.36290
C3702       C  0.55734348  0.30443338  0.21528791     0.36290
N3703       N  0.95440568  0.20064916  0.28056302    -0.38530
N3704       N  0.57482231  0.32203711  0.20467087    -0.38530
N3705       N  0.51925106  0.13285853  0.28118710    -0.37980
N3706       N  0.00947855  0.38970394  0.20296932    -0.37980
C3707       C  0.88241550  0.59272103  0.24717195    -0.04650
C3708       C  0.86753381  0.61220106  0.26471814    -0.01760
C3709       C  0.86521663  0.65922647  0.26086258     0.03230
C3710       C  0.87747029  0.68813002  0.23887139    -0.04650
C3711       C  0.88922713  0.66809366  0.21927621    -0.01750
C3712       C  0.89378393  0.62166750  0.22470695     0.03220
C3713       C  0.85438566  0.58423363  0.28700977     0.37870
C3714       C  0.89577568  0.69448565  0.19268272     0.37860
C3715       C  0.91177151  0.60505394  0.20776516     0.36290
C3716       C  0.84903968  0.67665237  0.27927136     0.36290
N3717       N  0.92645628  0.59292551  0.19419365    -0.38530
N3718       N  0.83590350  0.68961537  0.29408485    -0.38530
N3719       N  0.90093949  0.71505192  0.17136127    -0.37980
N3720       N  0.84397663  0.56238025  0.30498236    -0.37980
C3721       C  0.89450149  0.18160087  0.25608252    -0.04650
C3722       C  0.88178547  0.14966261  0.27577904    -0.01760
C3723       C  0.88382598  0.10383452  0.27573209     0.03230
C3724       C  0.89829311  0.08907878  0.25572254    -0.04650
C3725       C  0.91270365  0.12054302  0.23769688    -0.01750
C3726       C  0.91092316  0.16625701  0.23789071     0.03220
C3727       C  0.86599425  0.16293169  0.29614420     0.37870
C3728       C  0.92982528  0.10678356  0.21869370     0.37860
C3729       C  0.92651519  0.19678162  0.21907491     0.36290
C3730       C  0.87031239  0.07248545  0.29624577     0.36290
N3731       N  0.93891862  0.22030336  0.20373596    -0.38530
N3732       N  0.85971811  0.04781266  0.31282121    -0.38530
N3733       N  0.94348000  0.09764757  0.20300968    -0.37980
N3734       N  0.85349579  0.17266349  0.31267439    -0.37980
C3735       C  0.78428339  0.48473717  0.24689629    -0.04650
C3736       C  0.77642812  0.50671287  0.26749567    -0.01760
C3737       C  0.75401281  0.53268862  0.26345702     0.03230
C3738       C  0.73766189  0.53525787  0.23899100    -0.04650
C3739       C  0.74598327  0.51382397  0.21820402    -0.01750
C3740       C  0.76846377  0.48796379  0.22228607     0.03220
C3741       C  0.79035978  0.49997995  0.29406065     0.37870
C3742       C  0.73204777  0.51899071  0.19185006     0.37860
C3743       C  0.77425464  0.46369250  0.20083376     0.36290
C3744       C  0.74895739  0.55718789  0.28503433     0.36290
N3745       N  0.77764439  0.44413187  0.18351549    -0.38530
N3746       N  0.74589737  0.57674551  0.30243144    -0.38530
N3747       N  0.72125767  0.52164561  0.17071215    -0.37980
N3748       N  0.80104812  0.49424382  0.31542798    -0.37980
C3749       C  0.83343703  0.38525216  0.36119872    -0.04650
C3750       C  0.81203891  0.36424838  0.37431385    -0.01760
C3751       C  0.80250732  0.37888775  0.39770058     0.03230
C3752       C  0.81550323  0.41244441  0.40937111    -0.04650
C3753       C  0.83950208  0.42629371  0.39898657    -0.01750
C3754       C  0.84641696  0.41780548  0.37353805     0.03220
C3755       C  0.79880975  0.33021318  0.36255518     0.37870
C3756       C  0.85785634  0.44964841  0.41382831     0.37860
C3757       C  0.86525747  0.44763171  0.35917669     0.36290
C3758       C  0.77992625  0.35816674  0.41010246     0.36290
N3759       N  0.87941439  0.47400943  0.34854442    -0.38530
N3760       N  0.76199264  0.34127439  0.42009654    -0.38530
N3761       N  0.87304792  0.46779673  0.42515109    -0.37980
N3762       N  0.78828957  0.30296082  0.35314747    -0.37980
C3763       C  0.93377216  0.37147812  0.35492130    -0.04650
C3764       C  0.92256522  0.33060230  0.36818514    -0.01760
C3765       C  0.93782542  0.29379853  0.38167068     0.03230
C3766       C  0.96411513  0.29829627  0.38527757    -0.04650
C3767       C  0.97547215  0.33752954  0.37099632    -0.01750
C3768       C  0.96067292  0.37472782  0.35791027     0.03220
C3769       C  0.89571442  0.32666604  0.37179936     0.37870
C3770       C  0.00288451  0.33954002  0.37041466     0.37860
C3771       C  0.97350726  0.41681725  0.34826025     0.36290
C3772       C  0.92681396  0.24994740  0.39042669     0.36290
N3773       N  0.98383613  0.45030911  0.34071098    -0.38530
N3774       N  0.91811057  0.21462293  0.39650303    -0.38530
N3775       N  0.52474128  0.34079174  0.36937758    -0.37980
N3776       N  0.87490480  0.31997521  0.37762880    -0.37980
loop_ 
_geom_bond_atom_site_label_1 
_geom_bond_atom_site_label_2 
_geom_bond_distance 
_geom_bond_site_symmetry_2 
_ccdc_geom_bond_type 
O1          Zr13   2.571       .  S
O1            C3   1.315       .  A
O2          Zr39   2.333       .  S
O2            C3   1.270       .  A
C3         C1861   1.504       .  S
O4          Zr16   2.437       .  S
O4            C6   1.284       .  A
O5          Zr40   2.456       .  S
O5            C6   1.291       .  A
C6         C1805   1.494       .  S
O7          Zr16   2.384       .  S
O7            C9   1.261       .  A
O8          Zr39   2.563       .  S
O8            C9   1.298       .  A
C9         C1875   1.525       .  S
O10         Zr13   2.427       .  S
O10          C12   1.286       .  A
O11         Zr40   2.398       .  S
O11          C12   1.282       .  A
C12        C1833   1.491       .  S
Zr13         O14   2.433       .  S
Zr13         O15   2.436       .  S
Zr13         O19   2.312       .  S
Zr13         O20   2.426       .  S
Zr13         O43   2.391       .  S
Zr13         O45   2.336       .  S
O14          H57   0.990       .  S
O15          H56   0.990       .  S
O15          H60   0.990       .  S
Zr16         O17   2.438       .  S
Zr16         O18   2.435       .  S
Zr16         O20   2.356       .  S
Zr16         O19   2.393       .  S
Zr16         O44   2.400       .  S
Zr16         O46   2.350       .  S
O17          H58   0.989       .  S
O17          H61   0.990       .  S
O18          H51   0.990       .  S
O19         Zr39   2.372       .  S
O20         Zr40   2.391       .  S
O20          H47   0.964       .  S
O21         Zr33   2.447       .  S
O21          C23   1.291       .  A
O22         Zr40   2.418       .  S
O22          C23   1.284       .  A
C23        C1780   1.491       .  S
O24         Zr36   2.414       .  S
O24          C26   1.280       .  A
O25         Zr39   2.448       .  S
O25          C26   1.293       .  A
C26        C1819   1.508       .  S
O27         Zr36   2.337       .  S
O27          C29   1.269       .  A
O28         Zr40   2.478       .  S
O28          C29   1.298       .  A
C29        C1794   1.466       .  S
O30         Zr33   2.375       .  S
O30          C32   1.274       .  A
O31         Zr39   2.515       .  S
O31          C32   1.305       .  A
C32        C1847   1.509       .  S
Zr33         O34   2.438       .  S
Zr33         O35   2.434       .  S
Zr33         O41   2.330       .  S
Zr33         O42   2.372       .  S
Zr33         O45   2.368       .  S
Zr33         O43   2.342       .  S
O34          H54   0.988       .  S
O34          H59   0.990       .  S
O35          H55   0.990       .  S
Zr36         O37   2.433       .  S
Zr36         O38   2.437       .  S
Zr36         O42   2.343       .  S
Zr36         O41   2.387       .  S
Zr36         O46   2.377       .  S
Zr36         O44   2.332       .  S
O37          H53   0.990       .  S
O38          H52   0.990       .  S
O38          H62   0.990       .  S
Zr39         O42   2.364       .  S
Zr39         O44   2.401       .  S
Zr39         O45   2.391       .  S
Zr40         O41   2.369       .  S
Zr40         O43   2.406       .  S
Zr40         O46   2.378       .  S
O41          H49   0.964       .  S
O44          H48   0.966       .  S
O45          H50   0.965       .  S
O63         Zr75   2.429   1_545  S
O63          C65   1.285       .  A
O64        Zr101   2.378   1_545  S
O64          C65   1.277       .  A
C65        C1836   1.485       .  S
O66         Zr78   2.485       .  S
O66          C68   1.297       .  A
O67        Zr102   2.383       .  S
O67          C68   1.278       .  A
C68        C1693   1.502       .  S
O69         Zr78   2.384       .  S
O69          C71   1.278       .  A
O70        Zr101   2.483       .  S
O70          C71   1.299       .  A
C71        C1735   1.478   1_565  S
O72         Zr75   2.336       .  S
O72          C74   1.268       .  A
O73        Zr102   2.536       .  S
O73          C74   1.309       .  A
C74        C1707   1.492       .  S
Zr75         O76   2.434   1_565  S
Zr75         O77   2.436       .  S
Zr75         O81   2.332       .  S
Zr75         O82   2.392       .  S
Zr75        O105   2.371       .  S
Zr75        O107   2.336       .  S
O76         H119   0.990       .  S
O77         H118   0.989   1_565  S
O77         H122   0.989   1_565  S
Zr78         O79   2.436       .  S
Zr78         O80   2.433       .  S
Zr78         O82   2.341       .  S
Zr78         O81   2.385       .  S
Zr78        O106   2.397       .  S
Zr78        O108   2.334       .  S
O79         H120   0.990       .  S
O79         H123   0.990       .  S
O80         H113   0.990       .  S
O81        Zr101   2.387       .  S
O82        Zr102   2.385       .  S
O82         H109   0.966       .  S
O83         Zr95   2.379       .  S
O83          C85   1.275       .  A
O84        Zr102   2.423       .  S
O84          C85   1.286       .  A
C85        C1721   1.469       .  S
O86         Zr98   2.592       .  S
O86          C88   1.317       .  A
O87        Zr101   2.319       .  S
O87          C88   1.271       .  A
C88        C1752   1.522       .  S
O89         Zr98   2.412       .  S
O89          C91   1.282       .  A
O90        Zr102   2.480       .  S
O90          C91   1.300       .  A
C91        C1822   1.516       .  S
O92         Zr95   2.380       .  S
O92          C94   1.260       .  A
O93        Zr101   2.547       .  S
O93          C94   1.302       .  A
C94        C1763   1.518       .  S
Zr95         O96   2.441       .  S
Zr95         O97   2.430       .  S
Zr95        O103   2.351       .  S
Zr95        O104   2.383       .  S
Zr95        O107   2.369       .  S
Zr95        O105   2.333       .  S
O96         H116   0.990       .  S
O96         H121   0.990       .  S
O97         H117   0.989       .  S
Zr98         O99   2.434       .  S
Zr98        O100   2.437       .  S
Zr98        O104   2.324       .  S
Zr98        O103   2.431       .  S
Zr98        O108   2.406       .  S
Zr98        O106   2.320       .  S
O99         H115   0.990       .  S
O100        H114   0.990       .  S
O100        H124   0.990       .  S
Zr101       O104   2.349       .  S
Zr101       O106   2.389       .  S
Zr101       O107   2.366       .  S
Zr102       O103   2.391       .  S
Zr102       O105   2.358       .  S
Zr102       O108   2.407       .  S
O103        H111   0.965       .  S
O106        H110   0.965       .  S
O107        H112   0.966       .  S
O125       Zr137   2.427       .  S
O125        C127   1.286       .  A
O126       Zr163   2.412       .  S
O126        C127   1.284       .  A
C127       C1654   1.479       .  S
O128       Zr140   2.502       .  S
O128        C130   1.300       .  A
O129       Zr164   2.430       .  S
O129        C130   1.288       .  A
C130       C1626   1.523       .  S
O131       Zr140   2.455       .  S
O131        C133   1.291       .  A
O132       Zr163   2.456       .  S
O132        C133   1.294       .  A
C133       C1808   1.493       .  S
O134       Zr137   2.337       .  S
O134        C136   1.269       .  A
O135       Zr164   2.556       .  S
O135        C136   1.311       .  A
C136       C1609   1.506       .  S
Zr137       O138   2.432       .  S
Zr137       O139   2.432       .  S
Zr137       O143   2.337       .  S
Zr137       O144   2.390       .  S
Zr137       O167   2.365       .  S
Zr137       O169   2.334       .  S
O138        H181   0.990       .  S
O139        H180   0.989       .  S
O139        H184   0.990       .  S
Zr140       O141   2.436       .  S
Zr140       O142   2.435       .  S
Zr140       O144   2.363       .  S
Zr140       O143   2.381       .  S
Zr140       O168   2.384       .  S
Zr140       O170   2.361       .  S
O141        H182   0.990       .  S
O141        H185   0.990       .  S
O142        H175   0.990       .  S
O143       Zr163   2.382       .  S
O144       Zr164   2.390       .  S
O144        H171   0.966       .  S
O145       Zr157   2.410       .  S
O145        C147   1.279       .  A
O146       Zr164   2.454       .  S
O146        C147   1.292       .  A
C147       C1738   1.484       .  S
O148       Zr160   2.595       .  S
O148        C150   1.313       .  A
O149       Zr163   2.350       .  S
O149        C150   1.263       .  A
C150       C1682   1.529       .  S
O151       Zr160   2.424   1_565  S
O151        C153   1.286       .  A
O152       Zr164   2.479   1_565  S
O152        C153   1.300       .  A
C153       C1637   1.488       .  S
O154       Zr157   2.400       .  S
O154        C156   1.265       .  A
O155       Zr163   2.554       .  S
O155        C156   1.301       .  A
C156       C1665   1.522       .  S
Zr157       O158   2.438       .  S
Zr157       O159   2.439       .  S
Zr157       O165   2.355       .  S
Zr157       O166   2.387       .  S
Zr157       O169   2.375       .  S
Zr157       O167   2.342       .  S
O158        H178   0.990       .  S
O158        H183   0.990       .  S
O159        H179   0.989       .  S
Zr160       O161   2.435       .  S
Zr160       O162   2.434       .  S
Zr160       O166   2.321       .  S
Zr160       O165   2.427       .  S
Zr160       O170   2.417       .  S
Zr160       O168   2.341       .  S
O161        H177   0.990       .  S
O162        H176   0.990       .  S
O162        H186   0.990   1_545  S
Zr163       O166   2.367       .  S
Zr163       O168   2.400       .  S
Zr163       O169   2.378       .  S
Zr164       O165   2.405       .  S
Zr164       O167   2.367       .  S
Zr164       O170   2.417       .  S
O165        H173   0.965       .  S
O168        H172   0.965       .  S
O169        H174   0.965       .  S
O187       Zr199   2.357       .  S
O187        C189   1.270       .  A
O188       Zr225   2.584       .  S
O188        C189   1.318       .  A
C189       C1553   1.531       .  S
O190       Zr202   2.376       .  S
O190        C192   1.261       .  A
O191       Zr226   2.528       .  S
O191        C192   1.293       .  A
C192       C1584   1.517       .  S
O193       Zr202   2.363       .  S
O193        C195   1.268       .  A
O194       Zr225   2.513       .  S
O194        C195   1.304       .  A
C195       C1850   1.525       .  S
O196       Zr199   2.418       .  S
O196        C198   1.283       .  A
O197       Zr226   2.444       .  S
O197        C198   1.290       .  A
C198       C1640   1.482       .  S
Zr199       O200   2.434       .  S
Zr199       O201   2.432       .  S
Zr199       O205   2.376       .  S
Zr199       O206   2.350       .  S
Zr199       O229   2.319       .  S
Zr199       O231   2.383       .  S
O200        H243   0.991       .  S
O201        H242   0.989       .  S
O201        H246   0.988       .  S
Zr202       O203   2.439       .  S
Zr202       O204   2.434       .  S
Zr202       O206   2.360       .  S
Zr202       O205   2.353       .  S
Zr202       O230   2.356       .  S
Zr202       O232   2.376       .  S
O203        H244   0.990       .  S
O203        H247   0.990       .  S
O204        H237   0.989       .  S
O205       Zr225   2.384       .  S
O206       Zr226   2.379       .  S
O206        H233   0.966       .  S
O207       Zr219   2.390       .  S
O207        C209   1.280       .  A
O208       Zr226   2.443       .  S
O208        C209   1.293       .  A
C209       C1724   1.467       .  S
O210       Zr222   2.415       .  S
O210        C212   1.285       .  A
O211       Zr225   2.452       .  S
O211        C212   1.296       .  A
C212       C1651   1.491       .  S
O213       Zr222   2.594       .  S
O213        C215   1.317       .  A
O214       Zr226   2.342       .  S
O214        C215   1.276       .  A
C215       C1595   1.520       .  S
O216       Zr219   2.453       .  S
O216        C218   1.289       .  A
O217       Zr225   2.515       .  S
O217        C218   1.305       .  A
C218       C1567   1.546       .  S
Zr219       O220   2.430       .  S
Zr219       O221   2.435       .  S
Zr219       O227   2.388       .  S
Zr219       O228   2.329       .  S
Zr219       O231   2.362       .  S
Zr219       O229   2.379       .  S
O220        H240   0.988       .  S
O220        H245   0.990       .  S
O221        H241   0.990       .  S
Zr222       O223   2.432       .  S
Zr222       O224   2.436       .  S
Zr222       O228   2.394       .  S
Zr222       O227   2.325       .  S
Zr222       O232   2.337       .  S
Zr222       O230   2.434       .  S
O223        H239   0.990       .  S
O224        H238   0.989       .  S
O224        H248   0.989       .  S
Zr225       O228   2.417       .  S
Zr225       O230   2.426       .  S
Zr225       O231   2.389       .  S
Zr226       O227   2.409       .  S
Zr226       O229   2.388       .  S
Zr226       O232   2.371       .  S
O227        H235   0.966       .  S
O230        H234   0.966       .  S
O231        H236   0.966       .  S
O249       Zr261   2.381       .  S
O249        C251   1.263       .  A
O250       Zr287   2.576       .  S
O250        C251   1.300       .  A
C251       C1612   1.540       .  S
O252       Zr264   2.410       .  S
O252        C254   1.283   1_554  A
O253       Zr288   2.456       .  S
O253        C254   1.295       .  A
C254       C1525   1.494       .  S
O255       Zr264   2.543       .  S
O255        C257   1.304       .  A
O256       Zr287   2.348       .  S
O256        C257   1.262       .  A
C257       C1777   1.501       .  S
O258       Zr261   2.386   1_556  S
O258        C260   1.277       .  A
O259       Zr288   2.499       .  S
O259        C260   1.301       .  A
C260       C1497   1.500       .  S
Zr261       O262   2.429       .  S
Zr261       O263   2.435       .  S
Zr261       O267   2.376       .  S
Zr261       O268   2.362       .  S
Zr261       O291   2.346   1_554  S
Zr261       O293   2.379       .  S
O262        H305   0.990       .  S
O263        H304   0.990       .  S
O263        H308   0.990       .  S
Zr264       O265   2.435       .  S
Zr264       O266   2.434       .  S
Zr264       O268   2.410       .  S
Zr264       O267   2.335       .  S
Zr264       O292   2.329       .  S
Zr264       O294   2.396   1_554  S
O265        H306   0.990       .  S
O265        H309   0.990       .  S
O266        H299   0.990       .  S
O267       Zr287   2.373       .  S
O268       Zr288   2.409   1_554  S
O268        H295   0.966       .  S
O269       Zr281   2.388       .  S
O269        C271   1.267       .  A
O270       Zr288   2.507       .  S
O270        C271   1.295       .  A
C271       C1483   1.499       .  S
O272       Zr284   2.442       .  S
O272        C274   1.289   1_556  A
O273       Zr287   2.467       .  S
O273        C274   1.296       .  A
C274       C1539   1.490       .  S
O275       Zr284   2.459       .  S
O275        C277   1.290       .  A
O276       Zr288   2.467       .  S
O276        C277   1.293       .  A
C277       C1469   1.544       .  S
O278       Zr281   2.418       .  S
O278        C280   1.283   1_556  A
O279       Zr287   2.450       .  S
O279        C280   1.292       .  A
C280       C1514   1.493       .  S
Zr281       O282   2.434       .  S
Zr281       O283   2.433       .  S
Zr281       O289   2.388       .  S
Zr281       O290   2.347       .  S
Zr281       O293   2.356   1_556  S
Zr281       O291   2.381       .  S
O282        H302   0.988       .  S
O282        H307   0.988       .  S
O283        H303   0.990       .  S
Zr284       O285   2.434       .  S
Zr284       O286   2.438       .  S
Zr284       O290   2.377       .  S
Zr284       O289   2.359       .  S
Zr284       O294   2.358       .  S
Zr284       O292   2.348   1_556  S
O285        H301   0.990       .  S
O286        H300   0.990       .  S
O286        H310   0.989       .  S
Zr287       O290   2.389   1_554  S
Zr287       O292   2.400       .  S
Zr287       O293   2.394       .  S
Zr288       O289   2.415       .  S
Zr288       O291   2.395       .  S
Zr288       O294   2.410       .  S
O289        H297   0.964       .  S
O292        H296   0.965       .  S
O293        H298   0.966       .  S
O311       Zr323   2.365       .  S
O311        C313   1.261       .  A
O312       Zr349   2.548       .  S
O312        C313   1.301       .  A
C313       C1556   1.508       .  S
O314       Zr326   2.415       .  S
O314        C316   1.282   1_554  A
O315       Zr350   2.469       .  S
O315        C316   1.296       .  A
C316       C1511   1.497       .  S
O317       Zr326   2.511       .  S
O317        C319   1.300       .  A
O318       Zr349   2.384       .  S
O318        C319   1.283       .  A
C319       C1696   1.486       .  S
O320       Zr323   2.427   1_556  S
O320        C322   1.285       .  A
O321       Zr350   2.390       .  S
O321        C322   1.278       .  A
C322       C1441   1.461       .  S
Zr323       O324   2.431       .  S
Zr323       O325   2.438       .  S
Zr323       O329   2.388       .  S
Zr323       O330   2.358   1_554  S
Zr323       O353   2.307   1_554  S
Zr323       O355   2.389       .  S
O324        H367   0.989       .  S
O325        H366   0.990       .  S
O325        H370   0.990       .  S
Zr326       O327   2.447       .  S
Zr326       O328   2.433       .  S
Zr326       O330   2.417   1_554  S
Zr326       O329   2.347       .  S
Zr326       O354   2.351       .  S
Zr326       O356   2.381   1_554  S
O327        H368   0.990       .  S
O327        H371   0.990       .  S
O328        H361   0.990       .  S
O329       Zr349   2.388       .  S
O330       Zr350   2.414       .  S
O330        H357   0.965   1_556  S
O331       Zr343   2.383       .  S
O331        C333   1.265       .  A
O332       Zr350   2.504       .  S
O332        C333   1.300       .  A
C333       C1430   1.509       .  S
O334       Zr346   2.401       .  S
O334        C336   1.276       .  A
O335       Zr349   2.518       .  S
O335        C336   1.303   1_554  A
C336       C1455   1.510       .  S
O337       Zr346   2.451       .  S
O337        C339   1.289       .  A
O338       Zr350   2.419       .  S
O338        C339   1.283       .  A
C339       C1413   1.519       .  S
O340       Zr343   2.411       .  S
O340        C342   1.283       .  A
O341       Zr349   2.461       .  S
O341        C342   1.297   1_554  A
C342       C1528   1.494       .  S
Zr343       O344   2.437       .  S
Zr343       O345   2.414       .  S
Zr343       O351   2.399       .  S
Zr343       O352   2.334       .  S
Zr343       O355   2.354   1_556  S
Zr343       O353   2.350       .  S
O344        H364   0.990       .  S
O344        H369   0.990       .  S
O345        H365   0.989       .  S
Zr346       O347   2.434       .  S
Zr346       O348   2.436       .  S
Zr346       O352   2.364       .  S
Zr346       O351   2.364       .  S
Zr346       O356   2.351       .  S
Zr346       O354   2.386   1_556  S
O347        H363   0.990       .  S
O348        H362   0.989       .  S
O348        H372   0.990       .  S
Zr349       O352   2.379   1_554  S
Zr349       O354   2.403       .  S
Zr349       O355   2.391       .  S
Zr350       O351   2.404       .  S
Zr350       O353   2.366       .  S
Zr350       O356   2.399       .  S
O351        H359   0.966       .  S
O354        H358   0.966       .  S
O355        H360   0.966       .  S
O373       Zr385   2.378       .  S
O373        C375   1.261       .  A
O374       Zr411   2.539       .  S
O374       C2263   1.304   1_455  A
C375       O2262   1.304       .  A
C375       C1710   1.520       .  S
O376       Zr388   2.473   1_556  S
O376        C378   1.297       .  A
O377       Zr412   2.454   1_455  S
O377        C378   1.295       .  A
C378       C1385   1.518       .  S
O379       Zr388   2.551       .  S
O379        C381   1.310       .  A
O380       Zr411   2.369       .  S
O380        C381   1.279   1_545  A
C381       C1623   1.500       .  S
O382       Zr385   2.366   1_566  S
O382        C384   1.273       .  A
O383      Zr2300   2.527       .  S
O383        C384   1.306       .  A
C384       C1458   1.497       .  S
Zr385       O386   2.434   1_545  S
Zr385       O387   2.439       .  S
Zr385       O415   2.347   1_554  S
Zr385       O417   2.364       .  S
Zr385      O2279   2.377       .  S
Zr385      O2280   2.359   1_544  S
O386        H429   0.990       .  S
O387        H428   0.990   1_554  S
O387        H432   0.990       .  S
Zr388       O389   2.434       .  S
Zr388       O390   2.434       .  S
Zr388       O392   2.412   1_454  S
Zr388       O391   2.351   1_565  S
Zr388       O416   2.361   1_565  S
Zr388       O418   2.384   1_554  S
O389        H430   0.990       .  S
O389        H433   0.990       .  S
O390        H423   0.990       .  S
O391       Zr411   2.380       .  S
O391      Zr2273   2.377   1_455  S
O392       Zr412   2.399       .  S
O392      Zr2273   2.359   1_566  S
O392       H2307   0.966       .  S
O393      Zr2293   2.359       .  S
O393        C395   1.274       .  A
O394      Zr2300   2.509   1_545  S
O394        C395   1.303       .  A
C395       C1357   1.486       .  S
O396       Zr408   2.399       .  S
O396        C398   1.281       .  A
O397       Zr411   2.512       .  S
O397        C398   1.305   1_554  A
C398       C1500   1.503       .  S
O399       Zr408   2.445   1_565  S
O399        C401   1.289       .  A
O400       Zr412   2.481   1_455  S
O400        C401   1.297       .  A
C401       C1374   1.529       .  S
O402       Zr405   2.442   1_455  S
O402        C404   1.287   1_556  A
O403       Zr411   2.423       .  S
O403        C404   1.287       .  A
C404       C1402   1.512       .  S
Zr405      O2281   2.359       .  S
Zr405       O406   2.435   1_655  S
Zr405      O2295   2.436       .  S
Zr405       O413   2.393   1_655  S
Zr405       O414   2.338   1_655  S
Zr405      O2305   2.333   1_556  S
Zr405      O2303   2.376       .  S
O406        H426   0.987       .  S
O406       H2319   0.990   1_455  S
O407      Zr2293   2.436       .  S
O407        H427   0.990       .  S
Zr408       O409   2.429       .  S
Zr408       O410   2.435       .  S
Zr408       O414   2.369       .  S
Zr408       O413   2.347       .  S
Zr408       O418   2.345   1_545  S
Zr408       O416   2.371   1_556  S
O409        H425   0.987       .  S
O410        H424   0.990   1_545  S
O410        H434   0.990       .  S
Zr411       O414   2.377   1_554  S
Zr411       O416   2.399       .  S
Zr411      O2305   2.382   1_455  S
Zr412      O2271   2.527       .  S
Zr412      O2282   2.509   1_565  S
Zr412       O413   2.403   1_665  S
Zr412       O418   2.409   1_655  S
Zr412      O2303   2.385   1_565  S
O413        H421   0.965       .  S
O415      Zr2293   2.376       .  S
O415      Zr2300   2.385   1_545  S
O416        H420   0.966       .  S
O417      Zr2293   2.334   1_554  S
O417      Zr2299   2.385       .  S
O417        H422   0.965       .  S
H419       O2280   0.966       .  S
H431       O2294   0.990       .  S
O435       Zr447   2.384       .  S
O435        C437   1.267       .  A
O436      Zr2361   2.585       .  S
O436        C437   1.308       .  A
C437       C1570   1.530       .  S
O438       Zr450   2.451   1_556  S
O438       C2328   1.290       .  A
O439       Zr474   2.473       .  S
O439        C440   1.297       .  A
C440       O2326   1.290   1_455  A
C440       C1388   1.496       .  S
O441       Zr450   2.553       .  S
O441        C443   1.307       .  A
O442       Zr473   2.285       .  S
O442        C443   1.252       .  A
C443       C1791   1.474       .  S
O444       Zr447   2.381   1_556  S
O444        C446   1.273       .  A
O445       Zr474   2.433       .  S
O445        C446   1.288       .  A
C446       C1444   1.498       .  S
Zr447       O448   2.438       .  S
Zr447       O449   2.439       .  S
Zr447       O453   2.374       .  S
Zr447       O454   2.355   1_554  S
Zr447       O477   2.354   1_554  S
Zr447       O479   2.370       .  S
O448        H491   0.990       .  S
O449        H490   0.989       .  S
O449        H494   0.989       .  S
Zr450       O451   2.434       .  S
Zr450       O452   2.435   1_554  S
Zr450       O478   2.330   1_554  S
Zr450       O480   2.386   1_554  S
Zr450      O2342   2.400   1_554  S
Zr450      O2341   2.356       .  S
O451        H495   0.990       .  S
O451       H2380   0.990       .  S
O452        H485   0.990   1_556  S
O453      Zr2338   2.356   1_455  S
O453      Zr2361   2.366       .  S
O454       Zr474   2.408       .  S
O454      Zr2338   2.399   1_456  S
O454        H481   0.965       .  S
O455       Zr467   2.409       .  S
O455        C457   1.273       .  A
O456       Zr474   2.526       .  S
O456        C457   1.303       .  A
C457       C1346   1.539       .  S
O458       Zr470   2.442       .  S
O458        C460   1.287   1_556  A
O459       Zr473   2.476       .  S
O459        C460   1.297       .  A
C460       C1542   1.502       .  S
O461       Zr470   2.467       .  S
O461        C463   1.293       .  A
O462       Zr474   2.425       .  S
O462       C2351   1.286   1_455  A
C463       O2350   1.286       .  A
C463       C1329   1.516       .  S
O464       Zr467   2.433       .  S
O464        C466   1.288   1_556  A
O465       Zr473   2.412       .  S
O465       C2354   1.285       .  A
C466       O2353   1.285       .  A
C466       C1399   1.478       .  S
Zr467       O468   2.434       .  S
Zr467       O469   2.432       .  S
Zr467       O475   2.399       .  S
Zr467       O479   2.362   1_556  S
Zr467       O477   2.374       .  S
Zr467      O2364   2.353       .  S
O468        H488   0.989       .  S
O468        H493   0.990       .  S
O469        H489   0.990       .  S
Zr470       O471   2.439       .  S
Zr470       O472   2.440       .  S
Zr470       O476   2.368       .  S
Zr470       O480   2.361       .  S
Zr470       O478   2.368       .  S
Zr470      O2363   2.346       .  S
O471        H487   0.990       .  S
O472        H486   0.988       .  S
O472        H496   0.990       .  S
Zr473      O2324   2.585       .  S
Zr473       O476   2.384   1_554  S
Zr473       O478   2.406   1_554  S
Zr473      O2341   2.366       .  S
Zr473      O2367   2.367       .  S
Zr474       O475   2.409       .  S
Zr474       O477   2.390       .  S
Zr474      O2368   2.398   1_455  S
O475      Zr2358   2.346   1_455  S
O475        H483   0.965       .  S
O476      Zr2355   2.353       .  S
O478        H482   0.964   1_556  S
O479      Zr2361   2.367       .  S
O479        H484   0.966       .  S
O480      Zr2362   2.399       .  S
H492       O2339   0.990   1_455  S
O497       Zr509   2.591       .  S
O497        C499   1.318       .  A
O498       Zr535   2.339       .  S
O498        C499   1.273       .  A
C499       C1472   1.524       .  S
O500       Zr512   2.428       .  S
O500        C502   1.282       .  A
O501       Zr536   2.438       .  S
O501        C502   1.288       .  A
C502       C1273   1.484       .  S
O503       Zr512   2.380       .  S
O503        C505   1.261       .  A
O504       Zr535   2.533       .  S
O504        C505   1.294       .  A
C505       C1360   1.519       .  S
O506       Zr509   2.435       .  S
O506        C508   1.288       .  A
O507       Zr536   2.407       .  S
O507        C508   1.284       .  A
C508       C1287   1.498   1_545  S
Zr509       O510   2.432       .  S
Zr509       O511   2.435       .  S
Zr509       O515   2.312       .  S
Zr509       O516   2.430       .  S
Zr509       O539   2.394       .  S
Zr509       O541   2.338       .  S
O510        H553   0.990       .  S
O511        H552   0.989       .  S
O511        H556   0.990       .  S
Zr512       O513   2.437       .  S
Zr512       O514   2.433       .  S
Zr512       O516   2.360       .  S
Zr512       O515   2.388       .  S
Zr512       O540   2.396       .  S
Zr512       O542   2.326       .  S
O513        H554   0.989       .  S
O513        H557   0.990       .  S
O514        H547   0.990       .  S
O515       Zr535   2.347       .  S
O516       Zr536   2.392       .  S
O516        H543   0.965       .  S
O517       Zr529   2.510       .  S
O517        C519   1.302       .  A
O518       Zr536   2.427       .  S
O518        C519   1.286       .  A
C519       C1245   1.515       .  S
O520       Zr532   2.463       .  S
O520        C522   1.290       .  A
O521       Zr535   2.398       .  S
O521        C522   1.282       .  A
C522       C1301   1.472       .  S
O523       Zr532   2.395       .  S
O523        C525   1.270       .  A
O524       Zr536   2.495       .  S
O524        C525   1.295       .  A
C525       C1259   1.496       .  S
O526       Zr529   2.427       .  S
O526        C528   1.287       .  A
O527       Zr535   2.438       .  S
O527        C528   1.290       .  A
C528       C1318   1.485       .  S
Zr529       O530   2.435       .  S
Zr529       O531   2.434       .  S
Zr529       O537   2.364       .  S
Zr529       O538   2.391       .  S
Zr529       O541   2.392       .  S
Zr529       O539   2.344       .  S
O530        H550   0.989       .  S
O530        H555   0.990       .  S
O531        H551   0.990       .  S
Zr532       O533   2.436       .  S
Zr532       O534   2.437       .  S
Zr532       O538   2.344       .  S
Zr532       O537   2.403       .  S
Zr532       O542   2.386       .  S
Zr532       O540   2.367       .  S
O533        H549   0.990       .  S
O534        H548   0.990       .  S
O534        H558   0.990       .  S
Zr535       O538   2.387       .  S
Zr535       O540   2.388       .  S
Zr535       O541   2.392       .  S
Zr536       O537   2.398       .  S
Zr536       O539   2.404       .  S
Zr536       O542   2.376       .  S
O537        H545   0.965       .  S
O540        H544   0.966       .  S
O541        H546   0.966       .  S
O559       Zr571   2.543       .  S
O559        C561   1.308       .  A
O560       Zr597   2.335       .  S
O560        C561   1.271       .  A
C561       C1416   1.499       .  S
O562       Zr574   2.415       .  S
O562        C564   1.282       .  A
O563       Zr598   2.402       .  S
O563        C564   1.282       .  A
C564       C3105   1.479       .  S
O565       Zr574   2.376       .  S
O565        C567   1.263       .  A
O566       Zr597   2.502       .  S
O566        C567   1.292       .  A
C567       C1332   1.505       .  S
O568       Zr571   2.431       .  S
O568        C570   1.286       .  A
O569       Zr598   2.432       .  S
O569        C570   1.289       .  A
C570       C1304   1.470       .  S
Zr571       O572   2.434       .  S
Zr571       O573   2.435       .  S
Zr571       O577   2.341       .  S
Zr571       O578   2.418       .  S
Zr571       O601   2.389       .  S
Zr571       O603   2.344       .  S
O572        H615   0.990       .  S
O573        H614   0.990       .  S
O573        H618   0.990       .  S
Zr574       O575   2.437       .  S
Zr574       O576   2.433       .  S
Zr574       O578   2.357       .  S
Zr574       O577   2.380       .  S
Zr574       O602   2.389       .  S
Zr574       O604   2.350       .  S
O575        H616   0.990       .  S
O575        H619   0.990       .  S
O576        H609   0.990       .  S
O577       Zr597   2.363       .  S
O578       Zr598   2.396       .  S
O578        H605   0.966       .  S
O579       Zr591   2.508       .  S
O579        C581   1.304       .  A
O580       Zr598   2.400       .  S
O580        C581   1.279       .  A
C581       C1189   1.515       .  S
O582       Zr594   2.469       .  S
O582        C584   1.292       .  A
O583       Zr597   2.372       .  S
O583        C584   1.276       .  A
C584       C1290   1.492       .  S
O585       Zr594   2.404       .  S
O585        C587   1.273       .  A
O586       Zr598   2.472       .  S
O586        C587   1.290       .  A
C587       C1203   1.480       .  S
O588       Zr591   2.442       .  S
O588        C590   1.289       .  A
O589       Zr597   2.453       .  S
O589        C590   1.293       .  A
C590       C1231   1.503       .  S
Zr591       O592   2.436       .  S
Zr591       O593   2.433       .  S
Zr591       O599   2.360       .  S
Zr591       O600   2.387       .  S
Zr591       O603   2.383       .  S
Zr591       O601   2.342       .  S
O592        H612   0.989       .  S
O592        H617   0.988       .  S
O593        H613   0.990       .  S
Zr594       O595   2.429       .  S
Zr594       O596   2.436       .  S
Zr594       O600   2.346       .  S
Zr594       O599   2.395       .  S
Zr594       O604   2.386       .  S
Zr594       O602   2.355       .  S
O595        H611   0.990       .  S
O596        H610   0.990       .  S
O596        H620   0.991       .  S
Zr597       O600   2.379       .  S
Zr597       O602   2.384       .  S
Zr597       O603   2.387       .  S
Zr598       O599   2.394       .  S
Zr598       O601   2.392       .  S
Zr598       O604   2.379       .  S
O599        H607   0.965       .  S
O602        H606   0.965       .  S
O603        H608   0.966       .  S
O621       Zr633   2.614       .  S
O621        C623   1.322       .  A
O622       Zr659   2.358       .  S
O622        C623   1.276       .  A
C623       C1343   1.529       .  S
O624       Zr636   2.419       .  S
O624        C626   1.283       .  A
O625       Zr660   2.414       .  S
O625        C626   1.283       .  A
C626       C1315   1.479       .  S
O627       Zr636   2.368       .  S
O627        C629   1.259       .  A
O628       Zr659   2.551       .  S
O628        C629   1.302       .  A
C629       C1486   1.534       .  S
O630       Zr633   2.461       .  S
O630        C632   1.293       .  A
O631       Zr660   2.410       .  S
O631        C632   1.286       .  A
C632       C1175   1.503       .  S
Zr633       O634   2.434       .  S
Zr633       O635   2.435       .  S
Zr633       O639   2.348       .  S
Zr633       O640   2.429       .  S
Zr633       O663   2.400       .  S
Zr633       O665   2.330       .  S
O634        H677   0.990       .  S
O635        H676   0.990       .  S
O635        H680   0.990       .  S
Zr636       O637   2.433       .  S
Zr636       O638   2.432       .  S
Zr636       O640   2.357       .  S
Zr636       O639   2.391       .  S
Zr636       O664   2.402       .  S
Zr636       O666   2.333       .  S
O637        H678   0.988       .  S
O637        H681   0.989       .  S
O638        H671   0.990       .  S
O639       Zr659   2.366       .  S
O640       Zr660   2.400       .  S
O640        H667   0.965       .  S
O641       Zr653   2.546       .  S
O641        C643   1.306       .  A
O642       Zr660   2.413       .  S
O642        C643   1.283       .  A
C643       C1150   1.531       .  S
O644       Zr656   2.431       .  S
O644        C646   1.283       .  A
O645       Zr659   2.417       .  S
O645        C646   1.285       .  A
C646       C1161   1.471       .  S
O647       Zr656   2.392       .  S
O647        C649   1.268       .  A
O648       Zr660   2.490       .  S
O648        C649   1.291       .  A
C649       C1136   1.495       .  S
O650       Zr653   2.425       .  S
O650        C652   1.287       .  A
O651       Zr659   2.432       .  S
O651        C652   1.289       .  A
C652       C1220   1.476       .  S
Zr653       O654   2.437       .  S
Zr653       O655   2.430       .  S
Zr653       O661   2.351       .  S
Zr653       O662   2.406       .  S
Zr653       O665   2.403       .  S
Zr653       O663   2.333       .  S
O654        H674   0.989       .  S
O654        H679   0.990       .  S
O655        H675   0.990       .  S
Zr656       O657   2.432       .  S
Zr656       O658   2.438       .  S
Zr656       O662   2.348       .  S
Zr656       O661   2.397       .  S
Zr656       O666   2.375       .  S
Zr656       O664   2.365       .  S
O657        H673   0.990       .  S
O658        H672   0.990       .  S
O658        H682   0.990       .  S
Zr659       O662   2.402       .  S
Zr659       O664   2.381       .  S
Zr659       O665   2.416       .  S
Zr660       O661   2.388       .  S
Zr660       O663   2.400       .  S
Zr660       O666   2.370       .  S
O661        H669   0.969       .  S
O664        H668   0.966       .  S
O665        H670   0.965       .  S
O683       Zr695   2.582       .  S
O683        C685   1.314       .  A
O684       Zr721   2.350       .  S
O684        C685   1.270       .  A
C685       C1371   1.517       .  S
O686       Zr698   2.442       .  S
O686        C688   1.286       .  A
O687       Zr722   2.429       .  S
O687        C688   1.286       .  A
C688       C1234   1.506       .  S
O689       Zr698   2.401       .  S
O689        C691   1.270       .  A
O690       Zr721   2.551       .  S
O690        C691   1.302       .  A
C691       C1427   1.497       .  S
O692       Zr695   2.420       .  S
O692        C694   1.284       .  A
O693       Zr722   2.446       .  S
O693        C694   1.291       .  A
C694       C1164   1.469       .  S
Zr695       O696   2.435       .  S
Zr695       O697   2.435       .  S
Zr695       O701   2.315       .  S
Zr695       O702   2.449       .  S
Zr695       O725   2.385       .  S
Zr695       O727   2.338       .  S
O696        H739   0.990       .  S
O697        H738   0.990       .  S
O697        H742   0.990       .  S
Zr698       O699   2.441       .  S
Zr698       O700   2.434   1_565  S
Zr698       O702   2.384       .  S
Zr698       O701   2.384       .  S
Zr698       O726   2.375   1_565  S
Zr698       O728   2.331       .  S
O699        H740   0.986       .  S
O699        H743   0.990       .  S
O700        H733   0.990       .  S
O701       Zr721   2.333       .  S
O702       Zr722   2.374       .  S
O702        H729   0.961       .  S
O703       Zr715   2.500       .  S
O703        C705   1.301       .  A
O704       Zr722   2.410       .  S
O704        C705   1.282       .  A
C705       C1119   1.519       .  S
O706       Zr718   2.430       .  S
O706        C708   1.284       .  A
O707       Zr721   2.426   1_545  S
O707        C708   1.287       .  A
C708       C1178   1.515       .  S
O709       Zr718   2.359       .  S
O709        C711   1.272   1_545  A
O710       Zr722   2.497       .  S
O710        C711   1.301       .  A
C711       C1105   1.479   1_565  S
O712       Zr715   2.447       .  S
O712        C714   1.290   1_565  A
O713       Zr721   2.434   1_545  S
O713        C714   1.289       .  A
C714       C1276   1.478       .  S
Zr715       O716   2.437       .  S
Zr715       O717   2.434       .  S
Zr715       O723   2.362       .  S
Zr715       O724   2.375   1_565  S
Zr715       O727   2.385       .  S
Zr715       O725   2.345       .  S
O716        H736   0.990       .  S
O716        H741   0.990       .  S
O717        H737   0.990       .  S
Zr718       O719   2.434       .  S
Zr718       O720   2.440       .  S
Zr718       O724   2.330       .  S
Zr718       O723   2.395   1_545  S
Zr718       O728   2.384   1_545  S
Zr718       O726   2.366       .  S
O719        H735   0.990       .  S
O720        H734   0.990       .  S
O720        H744   0.990       .  S
Zr721       O724   2.374   1_565  S
Zr721       O726   2.384   1_565  S
Zr721       O727   2.394       .  S
Zr722       O723   2.391       .  S
Zr722       O725   2.405       .  S
Zr722       O728   2.383       .  S
O723        H731   0.966       .  S
O726        H730   0.966       .  S
O727        H732   0.966       .  S
O745       Zr757   2.363       .  S
O745        C747   1.272       .  A
O746       Zr783   2.500       .  S
O746        C747   1.301   1_565  A
C747       C1668   1.480       .  S
O748       Zr760   2.389       .  S
O748        C750   1.277       .  A
O749       Zr784   2.434       .  S
O749        C750   1.287       .  A
C750       C1091   1.451       .  S
O751       Zr760   2.468   1_565  S
O751        C753   1.292       .  A
O752       Zr783   2.441       .  S
O752        C753   1.287       .  A
C753       C1749   1.501       .  S
O754       Zr757   2.465       .  S
O754        C756   1.290       .  A
O755       Zr784   2.395       .  S
O755        C756   1.278       .  A
C756       C1077   1.482       .  S
Zr757       O758   2.435       .  S
Zr757       O759   2.439       .  S
Zr757       O763   2.402       .  S
Zr757       O764   2.344       .  S
Zr757       O787   2.337       .  S
Zr757       O789   2.396       .  S
O758        H801   0.990       .  S
O759        H800   0.990       .  S
O759        H804   0.990       .  S
Zr760       O761   2.434       .  S
Zr760       O762   2.435   1_545  S
Zr760       O764   2.401       .  S
Zr760       O763   2.361       .  S
Zr760       O788   2.344   1_545  S
Zr760       O790   2.383       .  S
O761        H802   0.989       .  S
O761        H805   0.990       .  S
O762        H795   0.990       .  S
O763       Zr783   2.377   1_545  S
O764       Zr784   2.379       .  S
O764        H791   0.966       .  S
O765       Zr777   2.402       .  S
O765        C767   1.268       .  A
O766       Zr784   2.485       .  S
O766        C767   1.285       .  A
C767       C1108   1.505       .  S
O768       Zr780   2.457       .  S
O768        C770   1.294       .  A
O769       Zr783   2.407       .  S
O769        C770   1.286       .  A
C770       C1063   1.483       .  S
O771       Zr780   2.598       .  S
O771        C773   1.310   1_565  A
O772       Zr784   2.354       .  S
O772        C773   1.252       .  A
C773       C1248   1.541       .  S
O774       Zr777   2.445   1_565  S
O774        C776   1.287       .  A
O775       Zr783   2.396       .  S
O775        C776   1.280       .  A
C776       C1052   1.475       .  S
Zr777       O778   2.439   1_545  S
Zr777       O779   2.432       .  S
Zr777       O785   2.385       .  S
Zr777       O786   2.351   1_545  S
Zr777       O789   2.346       .  S
Zr777       O787   2.391       .  S
O778        H798   0.987       .  S
O778        H803   0.988       .  S
O779        H799   0.990       .  S
Zr780       O781   2.435       .  S
Zr780       O782   2.434       .  S
Zr780       O786   2.418       .  S
Zr780       O785   2.333   1_565  S
Zr780       O790   2.344   1_565  S
Zr780       O788   2.415       .  S
O781        H797   0.990       .  S
O782        H796   0.990       .  S
O782        H806   0.990       .  S
Zr783       O786   2.406       .  S
Zr783       O788   2.403       .  S
Zr783       O789   2.381   1_565  S
Zr784       O785   2.420       .  S
Zr784       O787   2.382       .  S
Zr784       O790   2.379       .  S
O785        H793   0.961       .  S
O788        H792   0.965       .  S
O789        H794   0.965       .  S
O807       Zr819   2.342       .  S
O807        C809   1.269       .  A
O808       Zr845   2.518       .  S
O808        C809   1.303       .  A
C809       C1581   1.496       .  S
O810       Zr822   2.400       .  S
O810        C812   1.281       .  A
O811       Zr846   2.434       .  S
O811        C812   1.289       .  A
C812       C1035   1.457       .  S
O813       Zr822   2.439       .  S
O813        C815   1.286       .  A
O814       Zr845   2.451       .  S
O814        C815   1.289       .  A
C815       C1864   1.522       .  S
O816       Zr819   2.421       .  S
O816        C818   1.282       .  A
O817       Zr846   2.406       .  S
O817        C818   1.275       .  A
C818       C1066   1.473       .  S
Zr819       O820   2.432       .  S
Zr819       O821   2.436       .  S
Zr819       O825   2.385       .  S
Zr819       O826   2.331       .  S
Zr819       O849   2.342       .  S
Zr819       O851   2.377       .  S
O820        H863   0.989       .  S
O821        H862   0.990       .  S
O821        H866   0.990       .  S
Zr822       O823   2.434       .  S
Zr822       O824   2.435       .  S
Zr822       O826   2.379       .  S
Zr822       O825   2.364       .  S
Zr822       O850   2.340       .  S
Zr822       O852   2.364       .  S
O823        H864   0.989       .  S
O823        H867   0.990       .  S
O824        H857   0.990       .  S
O825       Zr845   2.381       .  S
O826       Zr846   2.378       .  S
O826        H853   0.966       .  S
O827       Zr839   2.408       .  S
O827        C829   1.269       .  A
O828       Zr846   2.501       .  S
O828        C829   1.289       .  A
C829       C1133   1.515       .  S
O830       Zr842   2.475       .  S
O830        C832   1.296       .  A
O831       Zr845   2.413       .  S
O831        C832   1.286       .  A
C832       C1080   1.476       .  S
O833       Zr842   2.593       .  S
O833        C835   1.309       .  A
O834       Zr846   2.361       .  S
O834        C835   1.256       .  A
C835       C1192   1.529       .  S
O836       Zr839   2.399       .  S
O836        C838   1.278       .  A
O837       Zr845   2.425       .  S
O837        C838   1.286       .  A
C838       C1021   1.490       .  S
Zr839       O840   2.433       .  S
Zr839       O841   2.426       .  S
Zr839       O847   2.375       .  S
Zr839       O848   2.357       .  S
Zr839       O851   2.356       .  S
Zr839       O849   2.368       .  S
O840        H860   0.990       .  S
O840        H865   0.990       .  S
O841        H861   0.990       .  S
Zr842       O843   2.434       .  S
Zr842       O844   2.436       .  S
Zr842       O848   2.411       .  S
Zr842       O847   2.345       .  S
Zr842       O852   2.347       .  S
Zr842       O850   2.404       .  S
O843        H859   0.990       .  S
O844        H858   0.990       .  S
O844        H868   0.990       .  S
Zr845       O848   2.405       .  S
Zr845       O850   2.412       .  S
Zr845       O851   2.371       .  S
Zr846       O847   2.412       .  S
Zr846       O849   2.363       .  S
Zr846       O852   2.384       .  S
O847        H855   0.965       .  S
O850        H854   0.964       .  S
O851        H856   0.966       .  S
O869      Zr2769   2.373       .  S
O869        C871   1.271       .  A
O870      Zr2795   2.508       .  S
O870        C871   1.299       .  A
C871       C1878   1.487       .  S
O872       Zr884   2.393       .  S
O872        C874   1.279       .  A
O873       Zr908   2.435       .  S
O873        C874   1.289       .  A
C874       C1024   1.485       .  S
O875       Zr884   2.482       .  S
O875        C877   1.296       .  A
O876       Zr907   2.448       .  S
O876        C877   1.288       .  A
C877       C1679   1.520       .  S
O878       Zr881   2.442       .  S
O878        C880   1.286       .  A
O879       Zr908   2.370       .  S
O879        C880   1.274       .  A
C880        C996   1.484       .  S
Zr881      O2757   2.373   1_455  S
Zr881       O882   2.433       .  S
Zr881      O2771   2.441   1_455  S
Zr881       O887   2.392       .  S
Zr881       O888   2.348       .  S
Zr881      O2799   2.336       .  S
Zr881      O2801   2.387   1_455  S
O882        H925   0.989       .  S
O883      Zr2769   2.441       .  S
O883        H924   0.990       .  S
O883        H928   0.991       .  S
Zr884       O885   2.435       .  S
Zr884       O886   2.433       .  S
Zr884       O888   2.399       .  S
Zr884       O887   2.365       .  S
Zr884       O912   2.332       .  S
Zr884       O914   2.393       .  S
O885        H926   0.990       .  S
O885        H929   0.990       .  S
O886        H919   0.990       .  S
O887       Zr907   2.367       .  S
O888       Zr908   2.375       .  S
O888        H915   0.966       .  S
O889       Zr901   2.399       .  S
O889        C891   1.269       .  A
O890       Zr908   2.463       .  S
O890       C2779   1.285   1_455  A
C891       O2778   1.285       .  A
C891       C1262   1.500       .  S
O892       Zr904   2.489       .  S
O892        C894   1.300       .  A
O893       Zr907   2.386       .  S
O893        C894   1.282       .  A
C894       C1010   1.493       .  S
O895       Zr904   2.608       .  S
O895        C897   1.320       .  A
O896       Zr908   2.324       .  S
O896        C897   1.268       .  A
C897       C1147   1.519       .  S
O898       Zr901   2.392       .  S
O898        C900   1.275       .  A
O899      Zr2795   2.407       .  S
O899        C900   1.283       .  A
C900       C1094   1.451       .  S
Zr901       O902   2.441       .  S
Zr901       O903   2.430       .  S
Zr901       O910   2.347       .  S
Zr901       O913   2.361       .  S
Zr901       O911   2.375       .  S
Zr901      O2797   2.369       .  S
O902        H922   0.988       .  S
O902        H927   0.990       .  S
O903        H923   0.990       .  S
Zr904       O905   2.434       .  S
Zr904       O906   2.434       .  S
Zr904       O909   2.344       .  S
Zr904       O914   2.355       .  S
Zr904       O912   2.419       .  S
Zr904      O2798   2.407       .  S
O905        H921   0.990       .  S
O906        H920   0.990       .  S
O906        H930   0.990       .  S
Zr907      O2758   2.508   1_455  S
Zr907      O2787   2.407   1_455  S
Zr907       O912   2.403       .  S
Zr907      O2798   2.411       .  S
Zr907      O2801   2.376   1_455  S
Zr908       O909   2.391       .  S
Zr908       O914   2.382       .  S
Zr908      O2799   2.367       .  S
O909      Zr2789   2.369   1_455  S
O909        H917   0.965       .  S
O910      Zr2792   2.407       .  S
O910      Zr2795   2.411       .  S
O911      Zr2769   2.336       .  S
O911      Zr2796   2.367       .  S
O912        H916   0.966       .  S
O913      Zr2769   2.387       .  S
O913      Zr2795   2.376       .  S
O913        H918   0.965       .  S
O931      Zr2831   2.369       .  S
O931        C933   1.273       .  A
O932      Zr2857   2.506       .  S
O932        C933   1.302       .  A
C933       C1766   1.483       .  S
O934       Zr946   2.436       .  S
O934        C936   1.288       .  A
O935       Zr970   2.424       .  S
O935        C936   1.288       .  A
C936       C1049   1.472       .  S
O937       Zr946   2.494       .  S
O937        C939   1.295       .  A
O938       Zr969   2.431       .  S
O938        C939   1.286       .  A
C939       C1598   1.506       .  S
O940       Zr943   2.451       .  S
O940        C942   1.288       .  A
O941       Zr970   2.389       .  S
O941        C942   1.274       .  A
C942       C1007   1.489       .  S
Zr943      O2819   2.369   1_455  S
Zr943       O944   2.435       .  S
Zr943      O2833   2.433   1_455  S
Zr943       O949   2.397       .  S
Zr943       O950   2.346       .  S
Zr943       O973   2.350       .  S
Zr943      O2863   2.387   1_455  S
O944        H987   0.990       .  S
O945      Zr2831   2.433       .  S
O945        H986   0.990       .  S
O945        H990   0.990       .  S
Zr946       O947   2.433       .  S
Zr946       O948   2.434       .  S
Zr946       O950   2.395       .  S
Zr946       O949   2.377       .  S
Zr946       O974   2.350       .  S
Zr946       O976   2.383       .  S
O947        H988   0.990       .  S
O947        H991   0.990       .  S
O948        H981   0.990       .  S
O949       Zr969   2.374       .  S
O950       Zr970   2.382       .  S
O950        H977   0.966       .  S
O951       Zr963   2.381       .  S
O951       C2841   1.263       .  A
O952       Zr970   2.505       .  S
O952        C953   1.284       .  A
C953       O2839   1.263   1_455  A
C953       C3094   1.510   1_455  S
O954       Zr966   2.470       .  S
O954        C956   1.296       .  A
O955       Zr969   2.389       .  S
O955        C956   1.281       .  A
C956        C993   1.494       .  S
O957       Zr966   2.607       .  S
O957        C959   1.314       .  A
O958       Zr970   2.339       .  S
O958        C959   1.254       .  A
C959       C1122   1.529       .  S
O960       Zr963   2.412       .  S
O960        C962   1.280       .  A
O961      Zr2857   2.404       .  S
O961        C962   1.281       .  A
C962       C1038   1.461       .  S
Zr963       O964   2.439       .  S
Zr963       O965   2.433       .  S
Zr963       O975   2.341       .  S
Zr963      O2859   2.380       .  S
Zr963      O2860   2.346       .  S
Zr963      O2861   2.391       .  S
O964        H984   0.987       .  S
O964        H989   0.989       .  S
O965        H985   0.990       .  S
Zr966       O967   2.431       .  S
Zr966       O968   2.434       .  S
Zr966       O972   2.414       .  S
Zr966       O971   2.332       .  S
Zr966       O976   2.339       .  S
Zr966       O974   2.412       .  S
O967        H983   0.990       .  S
O968        H982   0.990       .  S
O968        H992   0.990       .  S
Zr969      O2820   2.506   1_455  S
Zr969      O2849   2.404   1_455  S
Zr969       O972   2.399       .  S
Zr969       O974   2.410       .  S
Zr969      O2863   2.362   1_455  S
Zr970       O971   2.405       .  S
Zr970       O973   2.367       .  S
Zr970       O976   2.384       .  S
O971      Zr2851   2.380   1_455  S
O971        H979   0.962       .  S
O972      Zr2851   2.346   1_455  S
O973      Zr2851   2.391   1_455  S
O974        H978   0.965       .  S
O975      Zr2831   2.387       .  S
O975      Zr2857   2.362       .  S
O975        H980   0.965       .  S
C993        C994   1.427       .  A
C993        C998   1.415       .  A
C994        C995   1.405       .  A
C994        C999   1.454       .  S
C995        C996   1.410       .  A
C995       C1002   1.456       .  S
C996        C997   1.418       .  A
C997        C998   1.408       .  A
C997       C1000   1.453       .  S
C998       C1001   1.451       .  S
C999       N2894   1.157       .  T
C1000      N1005   1.157       .  T
C1001      N1003   1.157       .  T
C1002      N2892   1.157       .  T
N1004      C2890   1.157       .  T
N1006      C2887   1.157       .  T
C1007      C1008   1.409       .  A
C1007      C1012   1.421       .  A
C1008      C1009   1.407   1_565  A
C1008      C1013   1.452   1_455  S
C1009      C1010   1.424       .  A
C1009      C1016   1.451   1_455  S
C1010      C1011   1.413       .  A
C1011      C1012   1.411   1_545  A
C1011      C1014   1.452       .  S
C1012      C1015   1.453       .  S
C1013      N1020   1.157       .  T
C1014      N1019   1.157       .  T
C1015      N1017   1.157       .  T
C1016      N2906   1.156       .  T
N1018      C2904   1.156       .  T
C1021      C1022   1.415       .  A
C1021      C1026   1.425       .  A
C1022      C1023   1.405       .  A
C1022      C1027   1.455       .  S
C1023      C1024   1.420       .  A
C1023      C1030   1.453       .  S
C1024      C1025   1.411       .  A
C1025      C1026   1.405       .  A
C1025      C1028   1.455       .  S
C1026      C1029   1.452       .  S
C1027      N1034   1.158       .  T
C1028      N1033   1.157       .  T
C1029      N1031   1.157       .  T
C1030      N1032   1.157       .  T
C1035      C1036   1.410       .  A
C1035      C1040   1.409       .  A
C1036      C1037   1.400       .  A
C1036      C1041   1.453       .  S
C1037      C1038   1.405       .  A
C1037      C1044   1.447       .  S
C1038      C1039   1.411       .  A
C1039      C1040   1.406       .  A
C1039      C1042   1.452       .  S
C1040      C1043   1.451       .  S
C1041      N1048   1.157       .  T
C1042      N1047   1.157       .  T
C1043      N1045   1.157       .  T
C1044      N1046   1.156       .  T
C1049      C1050   1.411       .  A
C1049      C1054   1.408       .  A
C1050      C1051   1.407       .  A
C1050      C1055   1.447       .  S
C1051      C1052   1.411       .  A
C1051      C1058   1.453       .  S
C1052      C1053   1.412       .  A
C1053      C1054   1.404       .  A
C1053      C1056   1.446       .  S
C1054      C1057   1.452       .  S
C1055      N1062   1.156       .  T
C1056      N1061   1.156       .  T
C1057      N1059   1.157       .  T
C1058      N1060   1.157       .  T
C1063      C1064   1.415       .  A
C1063      C1068   1.417       .  A
C1064      C1065   1.408       .  A
C1064      C1069   1.452       .  S
C1065      C1066   1.414       .  A
C1065      C1072   1.452       .  S
C1066      C1067   1.407       .  A
C1067      C1068   1.404       .  A
C1067      C1070   1.453       .  S
C1068      C1071   1.449       .  S
C1069      N1076   1.157       .  T
C1070      N1075   1.157       .  T
C1071      N1073   1.156       .  T
C1072      N1074   1.157       .  T
C1077      C1078   1.412       .  A
C1077      C1082   1.411       .  A
C1078      C1079   1.407       .  A
C1078      C1083   1.445       .  S
C1079      C1080   1.409       .  A
C1079      C1086   1.453       .  S
C1080      C1081   1.411       .  A
C1081      C1082   1.413       .  A
C1081      C1084   1.449       .  S
C1082      C1085   1.448       .  S
C1083      N1090   1.155       .  T
C1084      N1089   1.157       .  T
C1085      N1087   1.157       .  T
C1086      N1088   1.157       .  T
C1091      C1092   1.405       .  A
C1091      C1096   1.411       .  A
C1092      C1093   1.395       .  A
C1092      C1097   1.450       .  S
C1093      C1094   1.405       .  A
C1093      C1100   1.450       .  S
C1094      C1095   1.408       .  A
C1095      C1096   1.403       .  A
C1095      C1098   1.452       .  S
C1096      C1099   1.451       .  S
C1097      N1104   1.157       .  T
C1098      N1103   1.157       .  T
C1099      N1101   1.157       .  T
C1100      N1102   1.157       .  T
C1105      C1106   1.406   1_545  A
C1105      C1110   1.414       .  A
C1106      C1107   1.417   1_565  A
C1106      C1111   1.452       .  S
C1107      C1108   1.419       .  A
C1107      C1114   1.434       .  S
C1108      C1109   1.416       .  A
C1109      C1110   1.409       .  A
C1109      C1112   1.451       .  S
C1110      C1113   1.454       .  S
C1111      N1118   1.157       .  T
C1112      N1117   1.156       .  T
C1113      N1115   1.157       .  T
C1114      N1116   1.152   1_545  T
C1119      C1120   1.403       .  A
C1119      C1124   1.433       .  A
C1120      C1121   1.404       .  A
C1120      C1125   1.458       .  S
C1121      C1122   1.431       .  A
C1121      C1128   1.438       .  S
C1122      C1123   1.414       .  A
C1123      C1124   1.437       .  A
C1123      C1126   1.447       .  S
C1124      C1127   1.448       .  S
C1125      N1132   1.157       .  T
C1126      N1131   1.157       .  T
C1127      N1129   1.157       .  T
C1128      N1130   1.153       .  T
C1133      C1134   1.411       .  A
C1133      C1138   1.421       .  A
C1134      C1135   1.417       .  A
C1134      C1139   1.442       .  S
C1135      C1136   1.420       .  A
C1135      C1142   1.454       .  S
C1136      C1137   1.412       .  A
C1137      C1138   1.414       .  A
C1137      C1140   1.449       .  S
C1138      C1141   1.451       .  S
C1139      N1146   1.155       .  T
C1140      N1145   1.156       .  T
C1141      N1143   1.157       .  T
C1142      N1144   1.158       .  T
C1147      C1148   1.420       .  A
C1147      C1152   1.418       .  A
C1148      C1149   1.439       .  A
C1148      C1153   1.447       .  S
C1149      C1150   1.424       .  A
C1149      C1156   1.448       .  S
C1150      C1151   1.417       .  A
C1151      C1152   1.421       .  A
C1151      C1154   1.448       .  S
C1152      C1155   1.450       .  S
C1153      N1160   1.157       .  T
C1154      N1159   1.156       .  T
C1155      N1157   1.157       .  T
C1156      N1158   1.157       .  T
C1161      C1162   1.411       .  A
C1161      C1166   1.409       .  A
C1162      C1163   1.404       .  A
C1162      C1167   1.453       .  S
C1163      C1164   1.409       .  A
C1163      C1170   1.451       .  S
C1164      C1165   1.411       .  A
C1165      C1166   1.410       .  A
C1165      C1168   1.449       .  S
C1166      C1169   1.450       .  S
C1167      N1174   1.157       .  T
C1168      N1173   1.157       .  T
C1169      N1171   1.157       .  T
C1170      N1172   1.157       .  T
C1175      C1176   1.420       .  A
C1175      C1180   1.419       .  A
C1176      C1177   1.417       .  A
C1176      C1181   1.453       .  S
C1177      C1178   1.422       .  A
C1177      C1184   1.451       .  S
C1178      C1179   1.428       .  A
C1179      C1180   1.407       .  A
C1179      C1182   1.456       .  S
C1180      C1183   1.456       .  S
C1181      N1188   1.157       .  T
C1182      N1187   1.157       .  T
C1183      N1185   1.157       .  T
C1184      N1186   1.157       .  T
C1189      C1190   1.399       .  A
C1189      C1194   1.431       .  A
C1190      C1191   1.408       .  A
C1190      C1195   1.460       .  S
C1191      C1192   1.431       .  A
C1191      C1198   1.434       .  S
C1192      C1193   1.415       .  A
C1193      C1194   1.438       .  A
C1193      C1196   1.447       .  S
C1194      C1197   1.447       .  S
C1195      N1202   1.157       .  T
C1196      N1201   1.157       .  T
C1197      N1199   1.157       .  T
C1198      N1200   1.151       .  T
C1203      C1204   1.403       .  A
C1203      C1208   1.408       .  A
C1204      C3093   1.415       .  A
C1204      C3097   1.450       .  S
C1205      C3092   1.415   1_455  A
C1205      C3094   1.422   1_455  A
C1205      C1212   1.439       .  S
C1206      C2841   1.510       .  S
C1206      C1207   1.424       .  A
C1206      C3093   1.422       .  A
C1207      C1208   1.413       .  A
C1207      C1210   1.453       .  S
C1208      C1211   1.450       .  S
C1209      C3092   1.450   1_455  S
C1209      N1216   1.156       .  T
C1210      N1215   1.158       .  T
C1211      N1213   1.157       .  T
C1212      N1214   1.154       .  T
C1217      C2452   1.479   1_455  S
C1217      C1218   1.418       .  A
C1217      C1222   1.413       .  A
C1218      C1219   1.407       .  A
C1218      C1223   1.453       .  S
C1219      C1220   1.412       .  A
C1219      C1226   1.450       .  S
C1220      C1221   1.416       .  A
C1221      C1222   1.401       .  A
C1221      C1224   1.453       .  S
C1222      C3113   1.453   1_455  S
C1223      N1230   1.157       .  T
C1224      N1229   1.157       .  T
C1225      C3110   1.453       .  S
C1225      N1227   1.157       .  T
C1226      N1228   1.157       .  T
C1231      C1232   1.420       .  A
C1231      C1236   1.414       .  A
C1232      C1233   1.415       .  A
C1232      C1237   1.451       .  S
C1233      C1234   1.419       .  A
C1233      C1240   1.453       .  S
C1234      C1235   1.419       .  A
C1235      C1236   1.412       .  A
C1235      C1238   1.452       .  S
C1236      C1239   1.449       .  S
C1237      N1244   1.157       .  T
C1238      N1243   1.157       .  T
C1239      N1241   1.156       .  T
C1240      N1242   1.158       .  T
C1245      C1246   1.400       .  A
C1245      C1250   1.422       .  A
C1246      C1247   1.417       .  A
C1246      C1251   1.456       .  S
C1247      C1248   1.442       .  A
C1247      C1254   1.447       .  S
C1248      C1249   1.416       .  A
C1249      C1250   1.432       .  A
C1249      C1252   1.449   1_545  S
C1250      C1253   1.441       .  S
C1251      N1258   1.157       .  T
C1252      N1257   1.157       .  T
C1253      N1255   1.155       .  T
C1254      N1256   1.155       .  T
C1259      C1260   1.427       .  A
C1259      C1264   1.412       .  A
C1260      C1261   1.413       .  A
C1260      C1265   1.448       .  S
C1261      C1262   1.407       .  A
C1261      C3156   1.449       .  S
C1262      C1263   1.417       .  A
C1263      C1264   1.411       .  A
C1263      C1266   1.450       .  S
C1264      C1267   1.450       .  S
C1265      N1272   1.157       .  T
C1266      N1271   1.158       .  T
C1267      N1269   1.157       .  T
C1268      C3149   1.449   1_455  S
C1268      N1270   1.157       .  T
C1273      C1278   1.413       .  A
C1273      C3162   1.410       .  A
C1274      C1275   1.408       .  A
C1274      C3161   1.410   1_455  A
C1274      C1279   1.444       .  S
C1275      C1276   1.409       .  A
C1275      C1282   1.451       .  S
C1276      C1277   1.411       .  A
C1277      C3166   1.412   1_455  A
C1277      C1280   1.451   1_545  S
C1278      C3165   1.412       .  A
C1278      C1281   1.449       .  S
C1279      N3174   1.154       .  T
C1280      N1285   1.157       .  T
C1281      N1283   1.157       .  T
C1282      N1284   1.157       .  T
N1286      C3167   1.154       .  T
C1287      C1288   1.425       .  A
C1287      C1292   1.422       .  A
C1288      C1289   1.407       .  A
C1288      C1293   1.455   1_565  S
C1289      C1290   1.412       .  A
C1289      C1296   1.451       .  S
C1290      C1291   1.422       .  A
C1291      C1292   1.406       .  A
C1291      C1294   1.456       .  S
C1292      C1295   1.455       .  S
C1293      N1300   1.158       .  T
C1294      N1299   1.157       .  T
C1295      N1297   1.157       .  T
C1296      N1298   1.157       .  T
C1301      C1302   1.411       .  A
C1301      C1306   1.411       .  A
C1302      C1303   1.407       .  A
C1302      C1307   1.451       .  S
C1303      C1304   1.410       .  A
C1303      C1310   1.452       .  S
C1304      C1305   1.409       .  A
C1305      C1306   1.409       .  A
C1305      C1308   1.451       .  S
C1306      C1309   1.450       .  S
C1307      N1314   1.157       .  T
C1308      N1313   1.157       .  T
C1309      N1311   1.157       .  T
C1310      N1312   1.157       .  T
C1315      C1316   1.413       .  A
C1315      C1320   1.412       .  A
C1316      C1317   1.410       .  A
C1316      C1321   1.451       .  S
C1317      C1318   1.417       .  A
C1317      C1324   1.452       .  S
C1318      C1319   1.412       .  A
C1319      C1320   1.403       .  A
C1319      C1322   1.448       .  S
C1320      C1323   1.452       .  S
C1321      N1328   1.157       .  T
C1322      N1327   1.156       .  T
C1323      N1325   1.157       .  T
C1324      N1326   1.157       .  T
C1329      C1330   1.417       .  A
C1329      C1334   1.422       .  A
C1330      C1331   1.408       .  A
C1330      C1335   1.452       .  S
C1331      C1332   1.415       .  A
C1331      C1338   1.441       .  S
C1332      C1333   1.421       .  A
C1333      C1334   1.419       .  A
C1333      C1336   1.453       .  S
C1334      C3225   1.450       .  S
C1335      N1342   1.157       .  T
C1336      N3229   1.157       .  T
C1337      C3222   1.450   1_455  S
C1337      N1339   1.158       .  T
C1338      N1340   1.154       .  T
N1341      C3224   1.157       .  T
C1343      C1344   1.403       .  A
C1343      C1348   1.422       .  A
C1344      C1345   1.420       .  A
C1344      C1349   1.446       .  S
C1345      C1346   1.436       .  A
C1345      C1352   1.448       .  S
C1346      C1347   1.420       .  A
C1347      C1348   1.429       .  A
C1347      C1350   1.451       .  S
C1348      C1351   1.439       .  S
C1349      N1356   1.158       .  T
C1350      N1355   1.158       .  T
C1351      N1353   1.154       .  T
C1352      N1354   1.157       .  T
C1357      C1358   1.397       .  A
C1357      C1362   1.413       .  A
C1358      C1359   1.420       .  A
C1358      C1363   1.449       .  S
C1359      C1360   1.428       .  A
C1359      C1366   1.437       .  S
C1360      C1361   1.423       .  A
C1361      C1362   1.411       .  A
C1361      C1364   1.453       .  S
C1362      C3253   1.452       .  S
C1363      N1370   1.157       .  T
C1364      N1369   1.157       .  T
C1365      C3250   1.452   1_455  S
C1365      N1367   1.157       .  T
C1366      N1368   1.155       .  T
C1371      C1372   1.415       .  A
C1371      C1376   1.424       .  A
C1372      C1373   1.436       .  A
C1372      C1377   1.448       .  S
C1373      C1374   1.428       .  A
C1373      C1380   1.448       .  S
C1374      C1375   1.423       .  A
C1375      C1376   1.410       .  A
C1375      C1378   1.455   1_565  S
C1376      C1379   1.456       .  S
C1377      N1384   1.157       .  T
C1378      N1383   1.157       .  T
C1379      N1381   1.157   1_565  T
C1380      N1382   1.157       .  T
C1385      C1386   1.425       .  A
C1385      C1390   1.425   1_455  A
C1386      C1387   1.417       .  A
C1386      C1391   1.450       .  S
C1387      C1388   1.410       .  A
C1387      C1394   1.453       .  S
C1388      C1389   1.412   1_455  A
C1389      C1390   1.421       .  A
C1389      C3280   1.450       .  S
C1390      C1393   1.451       .  S
C1391      N1398   1.157   1_556  T
C1392      C3277   1.450       .  S
C1392      N1397   1.157       .  T
C1393      N3283   1.158       .  T
C1394      N1396   1.157       .  T
N1395      C3281   1.158       .  T
C1399      C1400   1.407   1_454  A
C1399      C1404   1.406       .  A
C1400      C1401   1.405       .  A
C1400      C1405   1.457       .  S
C1401      C1402   1.429   1_656  A
C1401      C1408   1.454       .  S
C1402      C1403   1.429       .  A
C1403      C1404   1.415       .  A
C1403      C1406   1.451       .  S
C1404      C1407   1.451       .  S
C1405      N1412   1.157       .  T
C1406      N1411   1.158       .  T
C1407      N1409   1.157       .  T
C1408      N1410   1.158       .  T
C1413      C1414   1.420       .  A
C1413      C1418   1.432       .  A
C1414      C1415   1.400       .  A
C1414      C1419   1.455       .  S
C1415      C1416   1.420       .  A
C1415      C1422   1.454       .  S
C1416      C1417   1.410       .  A
C1417      C1418   1.427       .  A
C1417      C1420   1.450       .  S
C1418      C1421   1.449       .  S
C1419      N1426   1.157       .  T
C1420      N1425   1.157       .  T
C1421      N1423   1.158       .  T
C1422      N1424   1.157       .  T
C1427      C1428   1.402       .  A
C1427      C1432   1.421       .  A
C1428      C1429   1.416       .  A
C1428      C1433   1.448       .  S
C1429      C1430   1.433       .  A
C1429      C1436   1.448       .  S
C1430      C1431   1.401       .  A
C1431      C1432   1.409       .  A
C1431      C1434   1.456       .  S
C1432      C1435   1.431       .  S
C1433      N1440   1.157   1_565  T
C1434      N1439   1.157       .  T
C1435      N1437   1.150       .  T
C1436      N1438   1.157       .  T
C1441      C1442   1.407       .  A
C1441      C1446   1.398       .  A
C1442      C1443   1.412       .  A
C1442      C1447   1.448       .  S
C1443      C1444   1.423       .  A
C1443      C1450   1.452       .  S
C1444      C1445   1.434       .  A
C1445      C1446   1.394       .  A
C1445      C1448   1.454   1_556  S
C1446      C1449   1.459   1_556  S
C1447      N1454   1.156       .  T
C1448      N1453   1.157       .  T
C1449      N1451   1.157       .  T
C1450      N1452   1.158       .  T
C1455      C1456   1.410   1_556  A
C1455      C1460   1.420       .  A
C1456      C1457   1.418   1_554  A
C1456      C1461   1.441       .  S
C1457      C1458   1.418       .  A
C1457      C1464   1.453   1_556  S
C1458      C1459   1.416       .  A
C1459      C1460   1.422       .  A
C1459      C1462   1.449   1_565  S
C1460      C1463   1.451       .  S
C1461      N1468   1.153       .  T
C1462      N1467   1.157       .  T
C1463      N1465   1.157       .  T
C1464      N1466   1.157       .  T
C1469      C1470   1.428       .  A
C1469      C1474   1.434       .  A
C1470      C1471   1.415       .  A
C1470      C1475   1.457       .  S
C1471      C1472   1.423       .  A
C1471      C1478   1.454       .  S
C1472      C1473   1.415       .  A
C1473      C1474   1.438       .  A
C1473      C1476   1.448       .  S
C1474      C1477   1.448       .  S
C1475      N1482   1.157       .  T
C1476      N1481   1.157       .  T
C1477      N1479   1.158       .  T
C1478      N1480   1.157       .  T
C1483      C1484   1.407       .  A
C1483      C1488   1.413       .  A
C1484      C1485   1.412       .  A
C1484      C1489   1.453       .  S
C1485      C1486   1.415       .  A
C1485      C1492   1.418       .  S
C1486      C1487   1.430       .  A
C1487      C1488   1.427       .  A
C1487      C1490   1.450       .  S
C1488      C1491   1.449       .  S
C1489      N1496   1.157       .  T
C1490      N1495   1.158       .  T
C1491      N1493   1.157       .  T
C1492      N1494   1.146       .  T
C1497      C1498   1.409       .  A
C1497      C1502   1.422   1_556  A
C1498      C1499   1.420       .  A
C1498      C1503   1.449       .  S
C1499      C1500   1.423       .  A
C1499      C1506   1.450       .  S
C1500      C1501   1.404   1_556  A
C1501      C1502   1.413       .  A
C1501      C1504   1.445       .  S
C1502      C1505   1.451       .  S
C1503      N1510   1.157       .  T
C1504      N1509   1.156       .  T
C1505      N1507   1.157       .  T
C1506      N1508   1.157       .  T
C1511      C1512   1.412       .  A
C1511      C1516   1.423       .  A
C1512      C1513   1.412       .  A
C1512      C1517   1.450       .  S
C1513      C1514   1.418   1_556  A
C1513      C1520   1.452       .  S
C1514      C1515   1.410       .  A
C1515      C1516   1.412   1_554  A
C1515      C1518   1.451       .  S
C1516      C1519   1.453   1_556  S
C1517      N1524   1.157       .  T
C1518      N1523   1.158       .  T
C1519      N1521   1.157       .  T
C1520      N1522   1.157       .  T
C1525      C1526   1.422       .  A
C1525      C1530   1.411       .  A
C1526      C1527   1.413   1_556  A
C1526      C1531   1.453   1_556  S
C1527      C1528   1.413   1_544  A
C1527      C1534   1.452   1_545  S
C1528      C1529   1.422   1_565  A
C1529      C1530   1.409       .  A
C1529      C1532   1.450       .  S
C1530      C1533   1.454       .  S
C1531      N1538   1.157       .  T
C1532      N1537   1.156   1_545  T
C1533      N1535   1.157       .  T
C1534      N1536   1.157       .  T
C1539      C1540   1.407   1_554  A
C1539      C1544   1.417       .  A
C1540      C1541   1.412       .  A
C1540      C1545   1.450       .  S
C1541      C1542   1.422   1_556  A
C1541      C1548   1.452       .  S
C1542      C1543   1.413       .  A
C1543      C1544   1.419       .  A
C1543      C1546   1.450       .  S
C1544      C1547   1.450       .  S
C1545      N1552   1.157       .  T
C1546      N1551   1.157       .  T
C1547      N1549   1.157       .  T
C1548      N1550   1.157       .  T
C1553      C1554   1.410       .  A
C1553      C1558   1.436       .  A
C1554      C1555   1.431       .  A
C1554      C1559   1.442       .  S
C1555      C1556   1.424       .  A
C1555      C1562   1.441       .  S
C1556      C1557   1.402       .  A
C1557      C1558   1.415       .  A
C1557      C1560   1.456       .  S
C1558      C1561   1.447       .  S
C1559      N1566   1.155       .  T
C1560      N1565   1.157       .  T
C1561      N1563   1.155       .  T
C1562      N1564   1.153       .  T
C1567      C1568   1.423       .  A
C1567      C1572   1.430       .  A
C1568      C1569   1.434       .  A
C1568      C1573   1.447       .  S
C1569      C1570   1.422       .  A
C1569      C1576   1.450       .  S
C1570      C1571   1.413       .  A
C1571      C1572   1.428       .  A
C1571      C1574   1.444       .  S
C1572      C1575   1.452       .  S
C1573      N1580   1.157       .  T
C1574      N1579   1.155       .  T
C1575      N1577   1.157       .  T
C1576      N1578   1.157       .  T
C1581      C1582   1.407       .  A
C1581      C1586   1.418       .  A
C1582      C1583   1.426       .  A
C1582      C1587   1.450       .  S
C1583      C1584   1.424       .  A
C1583      C1590   1.429       .  S
C1584      C1585   1.417       .  A
C1585      C1586   1.409       .  A
C1585      C1588   1.453       .  S
C1586      C1589   1.452       .  S
C1587      N1594   1.158       .  T
C1588      N1593   1.157       .  T
C1589      N1591   1.157       .  T
C1590      N1592   1.150       .  T
C1595      C1596   1.416       .  A
C1595      C1600   1.419       .  A
C1596      C1597   1.410       .  A
C1596      C1601   1.441       .  S
C1597      C1598   1.404       .  A
C1597      C1604   1.449       .  S
C1598      C1599   1.420       .  A
C1599      C1600   1.434       .  A
C1599      C1602   1.449       .  S
C1600      C1603   1.444       .  S
C1601      N1608   1.154       .  T
C1602      N1607   1.157       .  T
C1603      N1605   1.158       .  T
C1604      N1606   1.157       .  T
C1609      C1610   1.409       .  A
C1609      C1614   1.417       .  A
C1610      C1611   1.435       .  A
C1610      C1615   1.450       .  S
C1611      C1612   1.430       .  A
C1611      C1618   1.436       .  S
C1612      C1613   1.427       .  A
C1613      C1614   1.416       .  A
C1613      C1616   1.453       .  S
C1614      C1617   1.454       .  S
C1615      N1622   1.157       .  T
C1616      N1621   1.158       .  T
C1617      N1619   1.157       .  T
C1618      N1620   1.154       .  T
C1623      C1624   1.408   1_565  A
C1623      C1628   1.403       .  A
C1624      C1625   1.423       .  A
C1624      C1629   1.450       .  S
C1625      C1626   1.425       .  A
C1625      C1632   1.450       .  S
C1626      C1627   1.423       .  A
C1627      C1628   1.424   1_545  A
C1627      C1630   1.449       .  S
C1628      C1631   1.444       .  S
C1629      N1636   1.157       .  T
C1630      N1635   1.157       .  T
C1631      N1633   1.157       .  T
C1632      N1634   1.158       .  T
C1637      C1638   1.418       .  A
C1637      C1642   1.406       .  A
C1638      C1639   1.417       .  A
C1638      C1643   1.450       .  S
C1639      C1640   1.411       .  A
C1639      C1646   1.449       .  S
C1640      C1641   1.412       .  A
C1641      C1642   1.403       .  A
C1641      C1644   1.454       .  S
C1642      C1645   1.439       .  S
C1643      N1650   1.157       .  T
C1644      N1649   1.157       .  T
C1645      N1647   1.152       .  T
C1646      N1648   1.157       .  T
C1651      C1652   1.422       .  A
C1651      C1656   1.412       .  A
C1652      C1653   1.408       .  A
C1652      C1657   1.452       .  S
C1653      C1654   1.412       .  A
C1653      C1660   1.454       .  S
C1654      C1655   1.411       .  A
C1655      C1656   1.404       .  A
C1655      C1658   1.452       .  S
C1656      C1659   1.444       .  S
C1657      N1664   1.157       .  T
C1658      N1663   1.156       .  T
C1659      N1661   1.153       .  T
C1660      N1662   1.157       .  T
C1665      C1666   1.425       .  A
C1665      C1670   1.417       .  A
C1666      C1667   1.405       .  A
C1666      C1671   1.448       .  S
C1667      C1668   1.392       .  A
C1667      C1674   1.449       .  S
C1668      C1669   1.420       .  A
C1669      C1670   1.426       .  A
C1669      C1672   1.452       .  S
C1670      C1673   1.442       .  S
C1671      N1678   1.157       .  T
C1672      N1677   1.157       .  T
C1673      N1675   1.155       .  T
C1674      N1676   1.156       .  T
C1679      C1680   1.427       .  A
C1679      C1684   1.407       .  A
C1680      C1681   1.438       .  A
C1680      C1685   1.446       .  S
C1681      C1682   1.416       .  A
C1681      C1688   1.447       .  S
C1682      C1683   1.433       .  A
C1683      C1684   1.409       .  A
C1683      C1686   1.452       .  S
C1684      C1687   1.454       .  S
C1685      N1692   1.156       .  T
C1686      N1691   1.156       .  T
C1687      N1689   1.157       .  T
C1688      N1690   1.157       .  T
C1693      C1694   1.415       .  A
C1693      C1698   1.426       .  A
C1694      C1695   1.410       .  A
C1694      C1699   1.453       .  S
C1695      C1696   1.407       .  A
C1695      C1702   1.440       .  S
C1696      C1697   1.402       .  A
C1697      C1698   1.416       .  A
C1697      C1700   1.449       .  S
C1698      C1701   1.449       .  S
C1699      N1706   1.157       .  T
C1700      N1705   1.158       .  T
C1701      N1703   1.157       .  T
C1702      N1704   1.155       .  T
C1707      C1708   1.405       .  A
C1707      C1712   1.427       .  A
C1708      C1709   1.416       .  A
C1708      C1713   1.455       .  S
C1709      C1710   1.432   1_565  A
C1709      C1716   1.451   1_565  S
C1710      C1711   1.404       .  A
C1711      C1712   1.422   1_545  A
C1711      C1714   1.449       .  S
C1712      C1715   1.449       .  S
C1713      N1720   1.157       .  T
C1714      N3607   1.157       .  T
C1715      N1717   1.156       .  T
C1716      N1718   1.157       .  T
N1719      C3602   1.157       .  T
C1721      C1722   1.408       .  A
C1721      C1726   1.416       .  A
C1722      C3611   1.400       .  A
C1722      C1727   1.448       .  S
C1723      C1724   1.415       .  A
C1723      C3610   1.400   1_455  A
C1723      C1730   1.453       .  S
C1724      C1725   1.405       .  A
C1725      C3614   1.401       .  A
C1725      C1728   1.450       .  S
C1726      C3613   1.401       .  A
C1726      C1729   1.451       .  S
C1727      N1734   1.155       .  T
C1728      N1733   1.157       .  T
C1729      N1731   1.156       .  T
C1730      N1732   1.157       .  T
C1735      C1736   1.407       .  A
C1735      C1740   1.415   1_545  A
C1736      C1737   1.413       .  A
C1736      C1741   1.451       .  S
C1737      C1738   1.420       .  A
C1737      C1744   1.451       .  S
C1738      C1739   1.410   1_545  A
C1739      C1740   1.408       .  A
C1739      C1742   1.451       .  S
C1740      C1743   1.453       .  S
C1741      N1748   1.157       .  T
C1742      N1747   1.157       .  T
C1743      N1745   1.157       .  T
C1744      N1746   1.157       .  T
C1749      C1750   1.399       .  A
C1749      C1754   1.422       .  A
C1750      C1751   1.404       .  A
C1750      C1755   1.458       .  S
C1751      C1752   1.430       .  A
C1751      C1758   1.445       .  S
C1752      C1753   1.418       .  A
C1753      C1754   1.435       .  A
C1753      C1756   1.447       .  S
C1754      C1757   1.446       .  S
C1755      N1762   1.157   1_565  T
C1756      N1761   1.157       .  T
C1757      N1759   1.157       .  T
C1758      N1760   1.154       .  T
C1763      C1764   1.430       .  A
C1763      C1768   1.417       .  A
C1764      C1765   1.401       .  A
C1764      C1769   1.447       .  S
C1765      C1766   1.384       .  A
C1765      C1772   1.447       .  S
C1766      C1767   1.424       .  A
C1767      C1768   1.427       .  A
C1767      C1770   1.448       .  S
C1768      C1771   1.447       .  S
C1769      N1776   1.157       .  T
C1770      N1775   1.157       .  T
C1771      N1773   1.157       .  T
C1772      N3662   1.156       .  T
N1774      C3660   1.156       .  T
C1777      C1778   1.414       .  A
C1777      C1782   1.426       .  A
C1778      C1779   1.426       .  A
C1778      C1783   1.448       .  S
C1779      C1780   1.420       .  A
C1779      C1786   1.447       .  S
C1780      C1781   1.406       .  A
C1781      C1782   1.395       .  A
C1781      C1784   1.455       .  S
C1782      C1785   1.456       .  S
C1783      N1790   1.157       .  T
C1784      N1789   1.156       .  T
C1785      N1787   1.157       .  T
C1786      N1788   1.157       .  T
C1791      C1792   1.438       .  A
C1791      C1796   1.402       .  A
C1792      C1793   1.401       .  A
C1792      C1797   1.452       .  S
C1793      C1794   1.393       .  A
C1793      C1800   1.455       .  S
C1794      C1795   1.422       .  A
C1795      C1796   1.407       .  A
C1795      C1798   1.451       .  S
C1796      C1799   1.451       .  S
C1797      N1804   1.158       .  T
C1798      N1803   1.157       .  T
C1799      N1801   1.157       .  T
C1800      N1802   1.157       .  T
C1805      C1810   1.415       .  A
C1805      C3694   1.414       .  A
C1806      C1807   1.418       .  A
C1806      C3693   1.414   1_455  A
C1806      C3699   1.450       .  S
C1807      C1808   1.413       .  A
C1807      C1814   1.450       .  S
C1808      C1809   1.413       .  A
C1809      C3698   1.416   1_455  A
C1809      C1812   1.451       .  S
C1810      C3697   1.416       .  A
C1810      C1813   1.450       .  S
C1811      C3694   1.450       .  S
C1811      N1818   1.157       .  T
C1812      N1817   1.157       .  T
C1813      N1815   1.157       .  T
C1814      N1816   1.157       .  T
C1819      C1820   1.413       .  A
C1819      C1824   1.427       .  A
C1820      C1821   1.416       .  A
C1820      C1825   1.453       .  S
C1821      C1822   1.432       .  A
C1821      C1828   1.453       .  S
C1822      C1823   1.412       .  A
C1823      C1824   1.410       .  A
C1823      C1826   1.453       .  S
C1824      C1827   1.452       .  S
C1825      N1832   1.157       .  T
C1826      N1831   1.157       .  T
C1827      N1829   1.157       .  T
C1828      N1830   1.157       .  T
C1833      C1834   1.421       .  A
C1833      C1838   1.423       .  A
C1834      C1835   1.405       .  A
C1834      C1839   1.455       .  S
C1835      C1836   1.420       .  A
C1835      C1842   1.456       .  S
C1836      C1837   1.416       .  A
C1837      C1838   1.402       .  A
C1837      C1840   1.455       .  S
C1838      C1841   1.457       .  S
C1839      N1846   1.158       .  T
C1840      N1845   1.157       .  T
C1841      N1843   1.158       .  T
C1842      N1844   1.158       .  T
C1847      C1848   1.404       .  A
C1847      C1852   1.432       .  A
C1848      C1849   1.415       .  A
C1848      C1853   1.455       .  S
C1849      C1850   1.444       .  A
C1849      C1856   1.454       .  S
C1850      C1851   1.410       .  A
C1851      C1852   1.416       .  A
C1851      C1854   1.449       .  S
C1852      C1855   1.453       .  S
C1853      N1860   1.157       .  T
C1854      N1859   1.156       .  T
C1855      N1857   1.157       .  T
C1856      N1858   1.158       .  T
C1861      C1862   1.413       .  A
C1861      C1866   1.422       .  A
C1862      C1863   1.432       .  A
C1862      C1867   1.448       .  S
C1863      C1864   1.428       .  A
C1863      C1870   1.448       .  S
C1864      C1865   1.419       .  A
C1865      C1866   1.398       .  A
C1865      C1868   1.455       .  S
C1866      C1869   1.454       .  S
C1867      N1874   1.157       .  T
C1868      N1873   1.157       .  T
C1869      N1871   1.158       .  T
C1870      N1872   1.158       .  T
C1875      C1876   1.426       .  A
C1875      C1880   1.427       .  A
C1876      C1877   1.424       .  A
C1876      C1881   1.439       .  S
C1877      C1878   1.401       .  A
C1877      C1884   1.448       .  S
C1878      C1879   1.408       .  A
C1879      C1880   1.414       .  A
C1879      C1882   1.450       .  S
C1880      C1883   1.452       .  S
C1881      N1888   1.155       .  T
C1882      N3775   1.157       .  T
C1883      N1885   1.157       .  T
C1884      N1886   1.157       .  T
N1887      C3770   1.157       .  T
O1889     Zr1901   2.571       .  S
O1889      C1891   1.315       .  A
O1890     Zr1927   2.333       .  S
O1890      C1891   1.270       .  A
C1891      C3749   1.504       .  S
O1892     Zr1904   2.437       .  S
O1892      C1894   1.284       .  A
O1893     Zr1928   2.455       .  S
O1893      C1894   1.290       .  A
C1894      C3693   1.494       .  S
O1895     Zr1904   2.384       .  S
O1895      C1897   1.261       .  A
O1896     Zr1927   2.563       .  S
O1896      C1897   1.298       .  A
C1897      C3763   1.525       .  S
O1898     Zr1901   2.426       .  S
O1898      C1900   1.286       .  A
O1899     Zr1928   2.398       .  S
O1899      C1900   1.282       .  A
C1900      C3721   1.491       .  S
Zr1901     O1902   2.433       .  S
Zr1901     O1903   2.436       .  S
Zr1901     O1907   2.311       .  S
Zr1901     O1908   2.426       .  S
Zr1901     O1931   2.391       .  S
Zr1901     O1933   2.336       .  S
O1902      H1945   0.990       .  S
O1903      H1944   0.990       .  S
O1903      H1948   0.990       .  S
Zr1904     O1905   2.438       .  S
Zr1904     O1906   2.435       .  S
Zr1904     O1908   2.356       .  S
Zr1904     O1907   2.393       .  S
Zr1904     O1932   2.400       .  S
Zr1904     O1934   2.349       .  S
O1905      H1946   0.989       .  S
O1905      H1949   0.990       .  S
O1906      H1939   0.990       .  S
O1907     Zr1927   2.372       .  S
O1908     Zr1928   2.391       .  S
O1908      H1935   0.964       .  S
O1909     Zr1921   2.447       .  S
O1909      C1911   1.291       .  A
O1910     Zr1928   2.418       .  S
O1910      C1911   1.283       .  A
C1911      C3668   1.491       .  S
O1912     Zr1924   2.414       .  S
O1912      C1914   1.280       .  A
O1913     Zr1927   2.448       .  S
O1913      C1914   1.293       .  A
C1914      C3707   1.508       .  S
O1915     Zr1924   2.337       .  S
O1915      C1917   1.269       .  A
O1916     Zr1928   2.478       .  S
O1916      C1917   1.298       .  A
C1917      C3682   1.466       .  S
O1918     Zr1921   2.376       .  S
O1918      C1920   1.274       .  A
O1919     Zr1927   2.515       .  S
O1919      C1920   1.305       .  A
C1920      C3735   1.510       .  S
Zr1921     O1922   2.438       .  S
Zr1921     O1923   2.434       .  S
Zr1921     O1929   2.331       .  S
Zr1921     O1930   2.372       .  S
Zr1921     O1933   2.368       .  S
Zr1921     O1931   2.341       .  S
O1922      H1942   0.988       .  S
O1922      H1947   0.990       .  S
O1923      H1943   0.990       .  S
Zr1924     O1925   2.433       .  S
Zr1924     O1926   2.437       .  S
Zr1924     O1930   2.343       .  S
Zr1924     O1929   2.387       .  S
Zr1924     O1934   2.377       .  S
Zr1924     O1932   2.332       .  S
O1925      H1941   0.990       .  S
O1926      H1940   0.990       .  S
O1926      H1950   0.990       .  S
Zr1927     O1930   2.364       .  S
Zr1927     O1932   2.401       .  S
Zr1927     O1933   2.391       .  S
Zr1928     O1929   2.369       .  S
Zr1928     O1931   2.406       .  S
Zr1928     O1934   2.378       .  S
O1929      H1937   0.964       .  S
O1932      H1936   0.966       .  S
O1933      H1938   0.965       .  S
O1951     Zr1963   2.429   1_545  S
O1951      C1953   1.285       .  A
O1952     Zr1989   2.378   1_545  S
O1952      C1953   1.277       .  A
C1953      C3724   1.485       .  S
O1954     Zr1966   2.485       .  S
O1954      C1956   1.297       .  A
O1955     Zr1990   2.383       .  S
O1955      C1956   1.278       .  A
C1956      C3581   1.502       .  S
O1957     Zr1966   2.384       .  S
O1957      C1959   1.278       .  A
O1958     Zr1989   2.483       .  S
O1958      C1959   1.299       .  A
C1959      C3623   1.478   1_565  S
O1960     Zr1963   2.336       .  S
O1960      C1962   1.268       .  A
O1961     Zr1990   2.535       .  S
O1961      C1962   1.309       .  A
C1962      C3595   1.492       .  S
Zr1963     O1964   2.434   1_565  S
Zr1963     O1965   2.436       .  S
Zr1963     O1969   2.332       .  S
Zr1963     O1970   2.392       .  S
Zr1963     O1993   2.371       .  S
Zr1963     O1995   2.336       .  S
O1964      H2007   0.990       .  S
O1965      H2006   0.989   1_565  S
O1965      H2010   0.989   1_565  S
Zr1966     O1967   2.436       .  S
Zr1966     O1968   2.433       .  S
Zr1966     O1970   2.341       .  S
Zr1966     O1969   2.385       .  S
Zr1966     O1994   2.397       .  S
Zr1966     O1996   2.334       .  S
O1967      H2008   0.990       .  S
O1967      H2011   0.990       .  S
O1968      H2001   0.990       .  S
O1969     Zr1989   2.387       .  S
O1970     Zr1990   2.385       .  S
O1970      H1997   0.966       .  S
O1971     Zr1983   2.379       .  S
O1971      C1973   1.275       .  A
O1972     Zr1990   2.423       .  S
O1972      C1973   1.286       .  A
C1973      C3609   1.469       .  S
O1974     Zr1986   2.592       .  S
O1974      C1976   1.317       .  A
O1975     Zr1989   2.319       .  S
O1975      C1976   1.271       .  A
C1976      C3640   1.522       .  S
O1977     Zr1986   2.411       .  S
O1977      C1979   1.282       .  A
O1978     Zr1990   2.480       .  S
O1978      C1979   1.300       .  A
C1979      C3710   1.516       .  S
O1980     Zr1983   2.380       .  S
O1980      C1982   1.260       .  A
O1981     Zr1989   2.548       .  S
O1981      C1982   1.302       .  A
C1982      C3651   1.518       .  S
Zr1983     O1984   2.441       .  S
Zr1983     O1985   2.430       .  S
Zr1983     O1991   2.351       .  S
Zr1983     O1992   2.383       .  S
Zr1983     O1995   2.369       .  S
Zr1983     O1993   2.333       .  S
O1984      H2004   0.990       .  S
O1984      H2009   0.990       .  S
O1985      H2005   0.989       .  S
Zr1986     O1987   2.434       .  S
Zr1986     O1988   2.437       .  S
Zr1986     O1992   2.324       .  S
Zr1986     O1991   2.431       .  S
Zr1986     O1996   2.406       .  S
Zr1986     O1994   2.320       .  S
O1987      H2003   0.990       .  S
O1988      H2002   0.990       .  S
O1988      H2012   0.990       .  S
Zr1989     O1992   2.349       .  S
Zr1989     O1994   2.389       .  S
Zr1989     O1995   2.366       .  S
Zr1990     O1991   2.391       .  S
Zr1990     O1993   2.358       .  S
Zr1990     O1996   2.407       .  S
O1991      H1999   0.965       .  S
O1994      H1998   0.965       .  S
O1995      H2000   0.966       .  S
O2013     Zr2025   2.426       .  S
O2013      C2015   1.286       .  A
O2014     Zr2051   2.412       .  S
O2014      C2015   1.284       .  A
C2015      C3542   1.479       .  S
O2016     Zr2028   2.502       .  S
O2016      C2018   1.300       .  A
O2017     Zr2052   2.430       .  S
O2017      C2018   1.288       .  A
C2018      C3514   1.522       .  S
O2019     Zr2028   2.455       .  S
O2019      C2021   1.291       .  A
O2020     Zr2051   2.456       .  S
O2020      C2021   1.294       .  A
C2021      C3696   1.493       .  S
O2022     Zr2025   2.337       .  S
O2022      C2024   1.269       .  A
O2023     Zr2052   2.556       .  S
O2023      C2024   1.312       .  A
C2024      C3497   1.506       .  S
Zr2025     O2026   2.432       .  S
Zr2025     O2027   2.432       .  S
Zr2025     O2031   2.337       .  S
Zr2025     O2032   2.390       .  S
Zr2025     O2055   2.364       .  S
Zr2025     O2057   2.334       .  S
O2026      H2069   0.990       .  S
O2027      H2068   0.989       .  S
O2027      H2072   0.990       .  S
Zr2028     O2029   2.436       .  S
Zr2028     O2030   2.435       .  S
Zr2028     O2032   2.363       .  S
Zr2028     O2031   2.381       .  S
Zr2028     O2056   2.384       .  S
Zr2028     O2058   2.361       .  S
O2029      H2070   0.990       .  S
O2029      H2073   0.990       .  S
O2030      H2063   0.990       .  S
O2031     Zr2051   2.382       .  S
O2032     Zr2052   2.390       .  S
O2032      H2059   0.966       .  S
O2033     Zr2045   2.410       .  S
O2033      C2035   1.279       .  A
O2034     Zr2052   2.454       .  S
O2034      C2035   1.292       .  A
C2035      C3626   1.484       .  S
O2036     Zr2048   2.595       .  S
O2036      C2038   1.313       .  A
O2037     Zr2051   2.349       .  S
O2037      C2038   1.263       .  A
C2038      C3570   1.529       .  S
O2039     Zr2048   2.423   1_565  S
O2039      C2041   1.286       .  A
O2040     Zr2052   2.479   1_565  S
O2040      C2041   1.300       .  A
C2041      C3525   1.488       .  S
O2042     Zr2045   2.400       .  S
O2042      C2044   1.265       .  A
O2043     Zr2051   2.554       .  S
O2043      C2044   1.301       .  A
C2044      C3553   1.522       .  S
Zr2045     O2046   2.438       .  S
Zr2045     O2047   2.439       .  S
Zr2045     O2053   2.355       .  S
Zr2045     O2054   2.387       .  S
Zr2045     O2057   2.375       .  S
Zr2045     O2055   2.342       .  S
O2046      H2066   0.990       .  S
O2046      H2071   0.990       .  S
O2047      H2067   0.989       .  S
Zr2048     O2049   2.435       .  S
Zr2048     O2050   2.434       .  S
Zr2048     O2054   2.321       .  S
Zr2048     O2053   2.427       .  S
Zr2048     O2058   2.417       .  S
Zr2048     O2056   2.341       .  S
O2049      H2065   0.990       .  S
O2050      H2064   0.990       .  S
O2050      H2074   0.990   1_545  S
Zr2051     O2054   2.367       .  S
Zr2051     O2056   2.400       .  S
Zr2051     O2057   2.378       .  S
Zr2052     O2053   2.405       .  S
Zr2052     O2055   2.367       .  S
Zr2052     O2058   2.417       .  S
O2053      H2061   0.965       .  S
O2056      H2060   0.965       .  S
O2057      H2062   0.965       .  S
O2075     Zr2087   2.357       .  S
O2075      C2077   1.270       .  A
O2076     Zr2113   2.584       .  S
O2076      C2077   1.319       .  A
C2077      C3441   1.531       .  S
O2078     Zr2090   2.377       .  S
O2078      C2080   1.261       .  A
O2079     Zr2114   2.528       .  S
O2079      C2080   1.293       .  A
C2080      C3472   1.517       .  S
O2081     Zr2090   2.363       .  S
O2081      C2083   1.268       .  A
O2082     Zr2113   2.513       .  S
O2082      C2083   1.304       .  A
C2083      C3738   1.525       .  S
O2084     Zr2087   2.418       .  S
O2084      C2086   1.283       .  A
O2085     Zr2114   2.444       .  S
O2085      C2086   1.290       .  A
C2086      C3528   1.482       .  S
Zr2087     O2088   2.434       .  S
Zr2087     O2089   2.432       .  S
Zr2087     O2093   2.376       .  S
Zr2087     O2094   2.350       .  S
Zr2087     O2117   2.319       .  S
Zr2087     O2119   2.383       .  S
O2088      H2131   0.991       .  S
O2089      H2130   0.989       .  S
O2089      H2134   0.988       .  S
Zr2090     O2091   2.439       .  S
Zr2090     O2092   2.434       .  S
Zr2090     O2094   2.360       .  S
Zr2090     O2093   2.353       .  S
Zr2090     O2118   2.356       .  S
Zr2090     O2120   2.376       .  S
O2091      H2132   0.990       .  S
O2091      H2135   0.990       .  S
O2092      H2125   0.989       .  S
O2093     Zr2113   2.385       .  S
O2094     Zr2114   2.379       .  S
O2094      H2121   0.966       .  S
O2095     Zr2107   2.390       .  S
O2095      C2097   1.280       .  A
O2096     Zr2114   2.443       .  S
O2096      C2097   1.293       .  A
C2097      C3612   1.467       .  S
O2098     Zr2110   2.414       .  S
O2098      C2100   1.285       .  A
O2099     Zr2113   2.452       .  S
O2099      C2100   1.296       .  A
C2100      C3539   1.492       .  S
O2101     Zr2110   2.594       .  S
O2101      C2103   1.317       .  A
O2102     Zr2114   2.342       .  S
O2102      C2103   1.276       .  A
C2103      C3483   1.520       .  S
O2104     Zr2107   2.453       .  S
O2104      C2106   1.289       .  A
O2105     Zr2113   2.516       .  S
O2105      C2106   1.305       .  A
C2106      C3455   1.546       .  S
Zr2107     O2108   2.430       .  S
Zr2107     O2109   2.434       .  S
Zr2107     O2115   2.388       .  S
Zr2107     O2116   2.329       .  S
Zr2107     O2119   2.362       .  S
Zr2107     O2117   2.379       .  S
O2108      H2128   0.988       .  S
O2108      H2133   0.990       .  S
O2109      H2129   0.990       .  S
Zr2110     O2111   2.432       .  S
Zr2110     O2112   2.436       .  S
Zr2110     O2116   2.394       .  S
Zr2110     O2115   2.325       .  S
Zr2110     O2120   2.337       .  S
Zr2110     O2118   2.434       .  S
O2111      H2127   0.990       .  S
O2112      H2126   0.989       .  S
O2112      H2136   0.989       .  S
Zr2113     O2116   2.417       .  S
Zr2113     O2118   2.426       .  S
Zr2113     O2119   2.389       .  S
Zr2114     O2115   2.409       .  S
Zr2114     O2117   2.388       .  S
Zr2114     O2120   2.371       .  S
O2115      H2123   0.966       .  S
O2118      H2122   0.966       .  S
O2119      H2124   0.966       .  S
O2137     Zr2149   2.381       .  S
O2137      C2139   1.263       .  A
O2138     Zr2175   2.575       .  S
O2138      C2139   1.300       .  A
C2139      C3500   1.540       .  S
O2140     Zr2152   2.410       .  S
O2140      C2142   1.283   1_554  A
O2141     Zr2176   2.456       .  S
O2141      C2142   1.295       .  A
C2142      C3413   1.494       .  S
O2143     Zr2152   2.543       .  S
O2143      C2145   1.304       .  A
O2144     Zr2175   2.348       .  S
O2144      C2145   1.262       .  A
C2145      C3665   1.501       .  S
O2146     Zr2149   2.386   1_556  S
O2146      C2148   1.277       .  A
O2147     Zr2176   2.499       .  S
O2147      C2148   1.301       .  A
C2148      C3385   1.500       .  S
Zr2149     O2150   2.429       .  S
Zr2149     O2151   2.435       .  S
Zr2149     O2155   2.376       .  S
Zr2149     O2156   2.362       .  S
Zr2149     O2179   2.346   1_554  S
Zr2149     O2181   2.379       .  S
O2150      H2193   0.990       .  S
O2151      H2192   0.990       .  S
O2151      H2196   0.990       .  S
Zr2152     O2153   2.435       .  S
Zr2152     O2154   2.434       .  S
Zr2152     O2156   2.410       .  S
Zr2152     O2155   2.335       .  S
Zr2152     O2180   2.329       .  S
Zr2152     O2182   2.396   1_554  S
O2153      H2194   0.990       .  S
O2153      H2197   0.990       .  S
O2154      H2187   0.990       .  S
O2155     Zr2175   2.373       .  S
O2156     Zr2176   2.409   1_554  S
O2156      H2183   0.966       .  S
O2157     Zr2169   2.388       .  S
O2157      C2159   1.267       .  A
O2158     Zr2176   2.508       .  S
O2158      C2159   1.295       .  A
C2159      C3371   1.499       .  S
O2160     Zr2172   2.443       .  S
O2160      C2162   1.289   1_556  A
O2161     Zr2175   2.467       .  S
O2161      C2162   1.296       .  A
C2162      C3427   1.490       .  S
O2163     Zr2172   2.459       .  S
O2163      C2165   1.290       .  A
O2164     Zr2176   2.467       .  S
O2164      C2165   1.293       .  A
C2165      C3357   1.544       .  S
O2166     Zr2169   2.418       .  S
O2166      C2168   1.283   1_556  A
O2167     Zr2175   2.450       .  S
O2167      C2168   1.292       .  A
C2168      C3402   1.493       .  S
Zr2169     O2170   2.434       .  S
Zr2169     O2171   2.433       .  S
Zr2169     O2177   2.388       .  S
Zr2169     O2178   2.347       .  S
Zr2169     O2181   2.356   1_556  S
Zr2169     O2179   2.381       .  S
O2170      H2190   0.988       .  S
O2170      H2195   0.988       .  S
O2171      H2191   0.990       .  S
Zr2172     O2173   2.434       .  S
Zr2172     O2174   2.438       .  S
Zr2172     O2178   2.377       .  S
Zr2172     O2177   2.359       .  S
Zr2172     O2182   2.358       .  S
Zr2172     O2180   2.347   1_556  S
O2173      H2189   0.990       .  S
O2174      H2188   0.990       .  S
O2174      H2198   0.989       .  S
Zr2175     O2178   2.389   1_554  S
Zr2175     O2180   2.400       .  S
Zr2175     O2181   2.394       .  S
Zr2176     O2177   2.415       .  S
Zr2176     O2179   2.395       .  S
Zr2176     O2182   2.410       .  S
O2177      H2185   0.964       .  S
O2180      H2184   0.965       .  S
O2181      H2186   0.966       .  S
O2199     Zr2211   2.365       .  S
O2199      C2201   1.261       .  A
O2200     Zr2237   2.549       .  S
O2200      C2201   1.301       .  A
C2201      C3444   1.508       .  S
O2202     Zr2214   2.415       .  S
O2202      C2204   1.282   1_554  A
O2203     Zr2238   2.469       .  S
O2203      C2204   1.296       .  A
C2204      C3399   1.497       .  S
O2205     Zr2214   2.511       .  S
O2205      C2207   1.300       .  A
O2206     Zr2237   2.384       .  S
O2206      C2207   1.283       .  A
C2207      C3584   1.486       .  S
O2208     Zr2211   2.427   1_556  S
O2208      C2210   1.285       .  A
O2209     Zr2238   2.390       .  S
O2209      C2210   1.278       .  A
C2210      C3329   1.461       .  S
Zr2211     O2212   2.431       .  S
Zr2211     O2213   2.438       .  S
Zr2211     O2217   2.388       .  S
Zr2211     O2218   2.358   1_554  S
Zr2211     O2241   2.307   1_554  S
Zr2211     O2243   2.390       .  S
O2212      H2255   0.989       .  S
O2213      H2254   0.990       .  S
O2213      H2258   0.990       .  S
Zr2214     O2215   2.447       .  S
Zr2214     O2216   2.433       .  S
Zr2214     O2218   2.417   1_554  S
Zr2214     O2217   2.347       .  S
Zr2214     O2242   2.351       .  S
Zr2214     O2244   2.381   1_554  S
O2215      H2256   0.990       .  S
O2215      H2259   0.990       .  S
O2216      H2249   0.990       .  S
O2217     Zr2237   2.388       .  S
O2218     Zr2238   2.414       .  S
O2218      H2245   0.965   1_556  S
O2219     Zr2231   2.383       .  S
O2219      C2221   1.265       .  A
O2220     Zr2238   2.504       .  S
O2220      C2221   1.300       .  A
C2221      C3318   1.509       .  S
O2222     Zr2234   2.401       .  S
O2222      C2224   1.276       .  A
O2223     Zr2237   2.518       .  S
O2223      C2224   1.303   1_554  A
C2224      C3343   1.510       .  S
O2225     Zr2234   2.451       .  S
O2225      C2227   1.289       .  A
O2226     Zr2238   2.420       .  S
O2226      C2227   1.283       .  A
C2227      C3301   1.519       .  S
O2228     Zr2231   2.411       .  S
O2228      C2230   1.283       .  A
O2229     Zr2237   2.461       .  S
O2229      C2230   1.297   1_554  A
C2230      C3416   1.494       .  S
Zr2231     O2232   2.437       .  S
Zr2231     O2233   2.414       .  S
Zr2231     O2239   2.399       .  S
Zr2231     O2240   2.335       .  S
Zr2231     O2243   2.354   1_556  S
Zr2231     O2241   2.350       .  S
O2232      H2252   0.990       .  S
O2232      H2257   0.990       .  S
O2233      H2253   0.989       .  S
Zr2234     O2235   2.434       .  S
Zr2234     O2236   2.436       .  S
Zr2234     O2240   2.364       .  S
Zr2234     O2239   2.364       .  S
Zr2234     O2244   2.351       .  S
Zr2234     O2242   2.386   1_556  S
O2235      H2251   0.990       .  S
O2236      H2250   0.989       .  S
O2236      H2260   0.990       .  S
Zr2237     O2240   2.379   1_554  S
Zr2237     O2242   2.403       .  S
Zr2237     O2243   2.391       .  S
Zr2238     O2239   2.404       .  S
Zr2238     O2241   2.366       .  S
Zr2238     O2244   2.399       .  S
O2239      H2247   0.966       .  S
O2242      H2246   0.966       .  S
O2243      H2248   0.966       .  S
O2261     Zr2273   2.378       .  S
O2261      C2263   1.261       .  A
O2262     Zr2299   2.539       .  S
C2263      C3598   1.520       .  S
O2264     Zr2276   2.475   1_556  S
O2264      C2266   1.297       .  A
O2265     Zr2300   2.454       .  S
O2265      C2266   1.295       .  A
C2266      C3273   1.518       .  S
O2267     Zr2276   2.558       .  S
O2267      C2269   1.309       .  A
O2268     Zr2299   2.381       .  S
O2268      C2269   1.280   1_545  A
C2269      C3511   1.497       .  S
O2270     Zr2273   2.366   1_566  S
O2270      C2272   1.273       .  A
O2271      C2272   1.306       .  A
C2272      C3346   1.497       .  S
Zr2273     O2274   2.434   1_545  S
Zr2273     O2275   2.439       .  S
Zr2273     O2303   2.347   1_554  S
Zr2273     O2305   2.364       .  S
O2274      H2317   0.990       .  S
O2275      H2316   0.990   1_554  S
O2275      H2320   0.990       .  S
Zr2276     O2277   2.434       .  S
Zr2276     O2278   2.433       .  S
Zr2276     O2280   2.414   1_554  S
Zr2276     O2279   2.350   1_565  S
Zr2276     O2304   2.360   1_565  S
Zr2276     O2306   2.386   1_554  S
O2277      H2318   0.990       .  S
O2277      H2321   0.990       .  S
O2278      H2311   0.990       .  S
O2279     Zr2299   2.380       .  S
O2280     Zr2300   2.399       .  S
O2281      C2283   1.274       .  A
O2282      C2283   1.303       .  A
C2283      C3245   1.486       .  S
O2284     Zr2296   2.399       .  S
O2284      C2286   1.281       .  A
O2285     Zr2299   2.511       .  S
O2285      C2286   1.305   1_554  A
C2286      C3388   1.503       .  S
O2287     Zr2296   2.445   1_565  S
O2287      C2289   1.289       .  A
O2288     Zr2300   2.481       .  S
O2288      C2289   1.297       .  A
C2289      C3262   1.529       .  S
O2290     Zr2293   2.442       .  S
O2290      C2292   1.287   1_556  A
O2291     Zr2299   2.424       .  S
O2291      C2292   1.287       .  A
C2292      C3290   1.512       .  S
Zr2293     O2294   2.435       .  S
Zr2293     O2301   2.392       .  S
Zr2293     O2302   2.338       .  S
O2294      H2314   0.987       .  S
O2295      H2315   0.990       .  S
Zr2296     O2297   2.428       .  S
Zr2296     O2298   2.435       .  S
Zr2296     O2302   2.369       .  S
Zr2296     O2301   2.347       .  S
Zr2296     O2306   2.345   1_545  S
Zr2296     O2304   2.371   1_556  S
O2297      H2313   0.987       .  S
O2298      H2312   0.990   1_545  S
O2298      H2322   0.990       .  S
Zr2299     O2302   2.379   1_554  S
Zr2299     O2304   2.398       .  S
Zr2300     O2301   2.403   1_565  S
Zr2300     O2306   2.409       .  S
O2301      H2309   0.965       .  S
O2304      H2308   0.966       .  S
O2305      H2310   0.965       .  S
O2323     Zr2335   2.384       .  S
O2323      C2325   1.267       .  A
O2324      C2325   1.308       .  A
C2325      C3458   1.530       .  S
O2326     Zr2338   2.451   1_556  S
O2327     Zr2362   2.473       .  S
O2327      C2328   1.297       .  A
C2328      C3276   1.496       .  S
O2329     Zr2338   2.552       .  S
O2329      C2331   1.307       .  A
O2330     Zr2361   2.285   1_655  S
O2330      C2331   1.252       .  A
C2331      C3679   1.474       .  S
O2332     Zr2335   2.381   1_556  S
O2332      C2334   1.273       .  A
O2333     Zr2362   2.433       .  S
O2333      C2334   1.288       .  A
C2334      C3332   1.499       .  S
Zr2335     O2336   2.438       .  S
Zr2335     O2337   2.439       .  S
Zr2335     O2341   2.374       .  S
Zr2335     O2342   2.355   1_554  S
Zr2335     O2365   2.354   1_554  S
Zr2335     O2367   2.370       .  S
O2336      H2379   0.990       .  S
O2337      H2378   0.989       .  S
O2337      H2382   0.989       .  S
Zr2338     O2339   2.434       .  S
Zr2338     O2340   2.435   1_554  S
Zr2338     O2366   2.330   1_554  S
Zr2338     O2368   2.386   1_554  S
O2339      H2383   0.990       .  S
O2340      H2373   0.990   1_556  S
O2342     Zr2362   2.408       .  S
O2342      H2369   0.965       .  S
O2343     Zr2355   2.409       .  S
O2343      C2345   1.273       .  A
O2344     Zr2362   2.526       .  S
O2344      C2345   1.303       .  A
C2345      C3234   1.539       .  S
O2346     Zr2358   2.442       .  S
O2346      C2348   1.287   1_556  A
O2347     Zr2361   2.476   1_655  S
O2347      C2348   1.297       .  A
C2348      C3430   1.502       .  S
O2349     Zr2358   2.467       .  S
O2349      C2351   1.293       .  A
O2350     Zr2362   2.425       .  S
C2351      C3217   1.516       .  S
O2352     Zr2355   2.433       .  S
O2352      C2354   1.288   1_556  A
O2353     Zr2361   2.412       .  S
C2354      C3287   1.478       .  S
Zr2355     O2356   2.434       .  S
Zr2355     O2357   2.432       .  S
Zr2355     O2363   2.399       .  S
Zr2355     O2367   2.362   1_556  S
Zr2355     O2365   2.374       .  S
O2356      H2376   0.989       .  S
O2356      H2381   0.990       .  S
O2357      H2377   0.990       .  S
Zr2358     O2359   2.439       .  S
Zr2358     O2360   2.440       .  S
Zr2358     O2364   2.368   1_655  S
Zr2358     O2368   2.361       .  S
Zr2358     O2366   2.368       .  S
O2359      H2375   0.990       .  S
O2360      H2374   0.988       .  S
O2360      H2384   0.990       .  S
Zr2361     O2364   2.384   1_554  S
Zr2361     O2366   2.406   1_454  S
Zr2362     O2363   2.409       .  S
Zr2362     O2365   2.390       .  S
O2363      H2371   0.965       .  S
O2366      H2370   0.964   1_556  S
O2367      H2372   0.966       .  S
O2385     Zr2397   2.591       .  S
O2385      C2387   1.318       .  A
O2386     Zr2423   2.339       .  S
O2386      C2387   1.273       .  A
C2387      C3360   1.524       .  S
O2388     Zr2400   2.428       .  S
O2388      C2390   1.282       .  A
O2389     Zr2424   2.438       .  S
O2389      C2390   1.288       .  A
C2390      C3161   1.484       .  S
O2391     Zr2400   2.380       .  S
O2391      C2393   1.261       .  A
O2392     Zr2423   2.533       .  S
O2392      C2393   1.294       .  A
C2393      C3248   1.519       .  S
O2394     Zr2397   2.435       .  S
O2394      C2396   1.288       .  A
O2395     Zr2424   2.406       .  S
O2395      C2396   1.284       .  A
C2396      C3175   1.498   1_545  S
Zr2397     O2398   2.432       .  S
Zr2397     O2399   2.435       .  S
Zr2397     O2403   2.312       .  S
Zr2397     O2404   2.430       .  S
Zr2397     O2427   2.394       .  S
Zr2397     O2429   2.338       .  S
O2398      H2441   0.990       .  S
O2399      H2440   0.989       .  S
O2399      H2444   0.990       .  S
Zr2400     O2401   2.437       .  S
Zr2400     O2402   2.433       .  S
Zr2400     O2404   2.360       .  S
Zr2400     O2403   2.388       .  S
Zr2400     O2428   2.396       .  S
Zr2400     O2430   2.326       .  S
O2401      H2442   0.989       .  S
O2401      H2445   0.990       .  S
O2402      H2435   0.990       .  S
O2403     Zr2423   2.347       .  S
O2404     Zr2424   2.392       .  S
O2404      H2431   0.965       .  S
O2405     Zr2417   2.510       .  S
O2405      C2407   1.302       .  A
O2406     Zr2424   2.427       .  S
O2406      C2407   1.286       .  A
C2407      C3133   1.516       .  S
O2408     Zr2420   2.463       .  S
O2408      C2410   1.290       .  A
O2409     Zr2423   2.398       .  S
O2409      C2410   1.282       .  A
C2410      C3189   1.472       .  S
O2411     Zr2420   2.395       .  S
O2411      C2413   1.270       .  A
O2412     Zr2424   2.495       .  S
O2412      C2413   1.295       .  A
C2413      C3147   1.496       .  S
O2414     Zr2417   2.427       .  S
O2414      C2416   1.287       .  A
O2415     Zr2423   2.438       .  S
O2415      C2416   1.290       .  A
C2416      C3206   1.485       .  S
Zr2417     O2418   2.435       .  S
Zr2417     O2419   2.434       .  S
Zr2417     O2425   2.364       .  S
Zr2417     O2426   2.391       .  S
Zr2417     O2429   2.392       .  S
Zr2417     O2427   2.344       .  S
O2418      H2438   0.989       .  S
O2418      H2443   0.990       .  S
O2419      H2439   0.990       .  S
Zr2420     O2421   2.436       .  S
Zr2420     O2422   2.437       .  S
Zr2420     O2426   2.344       .  S
Zr2420     O2425   2.403       .  S
Zr2420     O2430   2.386       .  S
Zr2420     O2428   2.367       .  S
O2421      H2437   0.990       .  S
O2422      H2436   0.990       .  S
O2422      H2446   0.990       .  S
Zr2423     O2426   2.387       .  S
Zr2423     O2428   2.388       .  S
Zr2423     O2429   2.392       .  S
Zr2424     O2425   2.398       .  S
Zr2424     O2427   2.404       .  S
Zr2424     O2430   2.376       .  S
O2425      H2433   0.965       .  S
O2428      H2432   0.966       .  S
O2429      H2434   0.966       .  S
O2447     Zr2459   2.543       .  S
O2447      C2449   1.308       .  A
O2448     Zr2485   2.335       .  S
O2448      C2449   1.271       .  A
C2449      C3304   1.499       .  S
O2450     Zr2462   2.415       .  S
O2450      C2452   1.282       .  A
O2451     Zr2486   2.402       .  S
O2451      C2452   1.282       .  A
O2453     Zr2462   2.376       .  S
O2453      C2455   1.263       .  A
O2454     Zr2485   2.502       .  S
O2454      C2455   1.292       .  A
C2455      C3220   1.505       .  S
O2456     Zr2459   2.431       .  S
O2456      C2458   1.286       .  A
O2457     Zr2486   2.432       .  S
O2457      C2458   1.289       .  A
C2458      C3192   1.470       .  S
Zr2459     O2460   2.434       .  S
Zr2459     O2461   2.435       .  S
Zr2459     O2465   2.341       .  S
Zr2459     O2466   2.418       .  S
Zr2459     O2489   2.389       .  S
Zr2459     O2491   2.344       .  S
O2460      H2503   0.990       .  S
O2461      H2502   0.990       .  S
O2461      H2506   0.990       .  S
Zr2462     O2463   2.437       .  S
Zr2462     O2464   2.433       .  S
Zr2462     O2466   2.357       .  S
Zr2462     O2465   2.380       .  S
Zr2462     O2490   2.389       .  S
Zr2462     O2492   2.350       .  S
O2463      H2504   0.990       .  S
O2463      H2507   0.990       .  S
O2464      H2497   0.990       .  S
O2465     Zr2485   2.363       .  S
O2466     Zr2486   2.396       .  S
O2466      H2493   0.966       .  S
O2467     Zr2479   2.508       .  S
O2467      C2469   1.304       .  A
O2468     Zr2486   2.400       .  S
O2468      C2469   1.279       .  A
C2469      C3077   1.515       .  S
O2470     Zr2482   2.469       .  S
O2470      C2472   1.292       .  A
O2471     Zr2485   2.372       .  S
O2471      C2472   1.276       .  A
C2472      C3178   1.492       .  S
O2473     Zr2482   2.404       .  S
O2473      C2475   1.273       .  A
O2474     Zr2486   2.472       .  S
O2474      C2475   1.290       .  A
C2475      C3091   1.480       .  S
O2476     Zr2479   2.442       .  S
O2476      C2478   1.289       .  A
O2477     Zr2485   2.454       .  S
O2477      C2478   1.293       .  A
C2478      C3119   1.503       .  S
Zr2479     O2480   2.436       .  S
Zr2479     O2481   2.433       .  S
Zr2479     O2487   2.360       .  S
Zr2479     O2488   2.387       .  S
Zr2479     O2491   2.383       .  S
Zr2479     O2489   2.342       .  S
O2480      H2500   0.989       .  S
O2480      H2505   0.988       .  S
O2481      H2501   0.990       .  S
Zr2482     O2483   2.429       .  S
Zr2482     O2484   2.436       .  S
Zr2482     O2488   2.346       .  S
Zr2482     O2487   2.395       .  S
Zr2482     O2492   2.386       .  S
Zr2482     O2490   2.355       .  S
O2483      H2499   0.990       .  S
O2484      H2498   0.990       .  S
O2484      H2508   0.991       .  S
Zr2485     O2488   2.379       .  S
Zr2485     O2490   2.384       .  S
Zr2485     O2491   2.387       .  S
Zr2486     O2487   2.394       .  S
Zr2486     O2489   2.392       .  S
Zr2486     O2492   2.379       .  S
O2487      H2495   0.965       .  S
O2490      H2494   0.965       .  S
O2491      H2496   0.966       .  S
O2509     Zr2521   2.615       .  S
O2509      C2511   1.322       .  A
O2510     Zr2547   2.358       .  S
O2510      C2511   1.276       .  A
C2511      C3231   1.529       .  S
O2512     Zr2524   2.419       .  S
O2512      C2514   1.283       .  A
O2513     Zr2548   2.414       .  S
O2513      C2514   1.283       .  A
C2514      C3203   1.479       .  S
O2515     Zr2524   2.368       .  S
O2515      C2517   1.259       .  A
O2516     Zr2547   2.551       .  S
O2516      C2517   1.302       .  A
C2517      C3374   1.534       .  S
O2518     Zr2521   2.461       .  S
O2518      C2520   1.293       .  A
O2519     Zr2548   2.410       .  S
O2519      C2520   1.286       .  A
C2520      C3063   1.503       .  S
Zr2521     O2522   2.434       .  S
Zr2521     O2523   2.435       .  S
Zr2521     O2527   2.348       .  S
Zr2521     O2528   2.429       .  S
Zr2521     O2551   2.400       .  S
Zr2521     O2553   2.330       .  S
O2522      H2565   0.990       .  S
O2523      H2564   0.990       .  S
O2523      H2568   0.990       .  S
Zr2524     O2525   2.433       .  S
Zr2524     O2526   2.432       .  S
Zr2524     O2528   2.357       .  S
Zr2524     O2527   2.391       .  S
Zr2524     O2552   2.402       .  S
Zr2524     O2554   2.333       .  S
O2525      H2566   0.988       .  S
O2525      H2569   0.989       .  S
O2526      H2559   0.990       .  S
O2527     Zr2547   2.366       .  S
O2528     Zr2548   2.401       .  S
O2528      H2555   0.965       .  S
O2529     Zr2541   2.546       .  S
O2529      C2531   1.306       .  A
O2530     Zr2548   2.413       .  S
O2530      C2531   1.283       .  A
C2531      C3038   1.531       .  S
O2532     Zr2544   2.431       .  S
O2532      C2534   1.283       .  A
O2533     Zr2547   2.417       .  S
O2533      C2534   1.285       .  A
C2534      C3049   1.471       .  S
O2535     Zr2544   2.392       .  S
O2535      C2537   1.268       .  A
O2536     Zr2548   2.490       .  S
O2536      C2537   1.291       .  A
C2537      C3024   1.495       .  S
O2538     Zr2541   2.425       .  S
O2538      C2540   1.287       .  A
O2539     Zr2547   2.432       .  S
O2539      C2540   1.289       .  A
C2540      C3108   1.476       .  S
Zr2541     O2542   2.437       .  S
Zr2541     O2543   2.430       .  S
Zr2541     O2549   2.351       .  S
Zr2541     O2550   2.406       .  S
Zr2541     O2553   2.403       .  S
Zr2541     O2551   2.333       .  S
O2542      H2562   0.989       .  S
O2542      H2567   0.990       .  S
O2543      H2563   0.990       .  S
Zr2544     O2545   2.432       .  S
Zr2544     O2546   2.438       .  S
Zr2544     O2550   2.348       .  S
Zr2544     O2549   2.397       .  S
Zr2544     O2554   2.375       .  S
Zr2544     O2552   2.365       .  S
O2545      H2561   0.990       .  S
O2546      H2560   0.990       .  S
O2546      H2570   0.990       .  S
Zr2547     O2550   2.402       .  S
Zr2547     O2552   2.381       .  S
Zr2547     O2553   2.416       .  S
Zr2548     O2549   2.388       .  S
Zr2548     O2551   2.400       .  S
Zr2548     O2554   2.370       .  S
O2549      H2557   0.969       .  S
O2552      H2556   0.966       .  S
O2553      H2558   0.965       .  S
O2571     Zr2583   2.582       .  S
O2571      C2573   1.314       .  A
O2572     Zr2609   2.350       .  S
O2572      C2573   1.270       .  A
C2573      C3259   1.517       .  S
O2574     Zr2586   2.442       .  S
O2574      C2576   1.286       .  A
O2575     Zr2610   2.429       .  S
O2575      C2576   1.286       .  A
C2576      C3122   1.506       .  S
O2577     Zr2586   2.401       .  S
O2577      C2579   1.270       .  A
O2578     Zr2609   2.551       .  S
O2578      C2579   1.302       .  A
C2579      C3315   1.497       .  S
O2580     Zr2583   2.420       .  S
O2580      C2582   1.284       .  A
O2581     Zr2610   2.446       .  S
O2581      C2582   1.291       .  A
C2582      C3052   1.469       .  S
Zr2583     O2584   2.435       .  S
Zr2583     O2585   2.435       .  S
Zr2583     O2589   2.315       .  S
Zr2583     O2590   2.449       .  S
Zr2583     O2613   2.385       .  S
Zr2583     O2615   2.338       .  S
O2584      H2627   0.990       .  S
O2585      H2626   0.990       .  S
O2585      H2630   0.990       .  S
Zr2586     O2587   2.441       .  S
Zr2586     O2588   2.434   1_565  S
Zr2586     O2590   2.384       .  S
Zr2586     O2589   2.384       .  S
Zr2586     O2614   2.375   1_565  S
Zr2586     O2616   2.331       .  S
O2587      H2628   0.986       .  S
O2587      H2631   0.990       .  S
O2588      H2621   0.990       .  S
O2589     Zr2609   2.333       .  S
O2590     Zr2610   2.374       .  S
O2590      H2617   0.961       .  S
O2591     Zr2603   2.500       .  S
O2591      C2593   1.301       .  A
O2592     Zr2610   2.410       .  S
O2592      C2593   1.282       .  A
C2593      C3007   1.518       .  S
O2594     Zr2606   2.430       .  S
O2594      C2596   1.284       .  A
O2595     Zr2609   2.426   1_545  S
O2595      C2596   1.287       .  A
C2596      C3066   1.515       .  S
O2597     Zr2606   2.359       .  S
O2597      C2599   1.272   1_545  A
O2598     Zr2610   2.497       .  S
O2598      C2599   1.301       .  A
C2599      C2993   1.479   1_565  S
O2600     Zr2603   2.447       .  S
O2600      C2602   1.290   1_565  A
O2601     Zr2609   2.434   1_545  S
O2601      C2602   1.289       .  A
C2602      C3164   1.478       .  S
Zr2603     O2604   2.437       .  S
Zr2603     O2605   2.434       .  S
Zr2603     O2611   2.362       .  S
Zr2603     O2612   2.375   1_565  S
Zr2603     O2615   2.385       .  S
Zr2603     O2613   2.345       .  S
O2604      H2624   0.990       .  S
O2604      H2629   0.990       .  S
O2605      H2625   0.990       .  S
Zr2606     O2607   2.434       .  S
Zr2606     O2608   2.440       .  S
Zr2606     O2612   2.330       .  S
Zr2606     O2611   2.395   1_545  S
Zr2606     O2616   2.384   1_545  S
Zr2606     O2614   2.366       .  S
O2607      H2623   0.990       .  S
O2608      H2622   0.990       .  S
O2608      H2632   0.990       .  S
Zr2609     O2612   2.374   1_565  S
Zr2609     O2614   2.384   1_565  S
Zr2609     O2615   2.394       .  S
Zr2610     O2611   2.391       .  S
Zr2610     O2613   2.405       .  S
Zr2610     O2616   2.383       .  S
O2611      H2619   0.966       .  S
O2614      H2618   0.966       .  S
O2615      H2620   0.966       .  S
O2633     Zr2645   2.364       .  S
O2633      C2635   1.272       .  A
O2634     Zr2671   2.499       .  S
O2634      C2635   1.301   1_565  A
C2635      C3556   1.480       .  S
O2636     Zr2648   2.389       .  S
O2636      C2638   1.277       .  A
O2637     Zr2672   2.434       .  S
O2637      C2638   1.287       .  A
C2638      C2979   1.451       .  S
O2639     Zr2648   2.468   1_565  S
O2639      C2641   1.292       .  A
O2640     Zr2671   2.441       .  S
O2640      C2641   1.286       .  A
C2641      C3637   1.501       .  S
O2642     Zr2645   2.465       .  S
O2642      C2644   1.290       .  A
O2643     Zr2672   2.395       .  S
O2643      C2644   1.278       .  A
C2644      C2965   1.482       .  S
Zr2645     O2646   2.435       .  S
Zr2645     O2647   2.439       .  S
Zr2645     O2651   2.402       .  S
Zr2645     O2652   2.344       .  S
Zr2645     O2675   2.337       .  S
Zr2645     O2677   2.396       .  S
O2646      H2689   0.990       .  S
O2647      H2688   0.990       .  S
O2647      H2692   0.990       .  S
Zr2648     O2649   2.434       .  S
Zr2648     O2650   2.435   1_545  S
Zr2648     O2652   2.401       .  S
Zr2648     O2651   2.361       .  S
Zr2648     O2676   2.344   1_545  S
Zr2648     O2678   2.383       .  S
O2649      H2690   0.989       .  S
O2649      H2693   0.990       .  S
O2650      H2683   0.990       .  S
O2651     Zr2671   2.377   1_545  S
O2652     Zr2672   2.379       .  S
O2652      H2679   0.966       .  S
O2653     Zr2665   2.402       .  S
O2653      C2655   1.268       .  A
O2654     Zr2672   2.485       .  S
O2654      C2655   1.285       .  A
C2655      C2996   1.505       .  S
O2656     Zr2668   2.457       .  S
O2656      C2658   1.294       .  A
O2657     Zr2671   2.407       .  S
O2657      C2658   1.286       .  A
C2658      C2951   1.483       .  S
O2659     Zr2668   2.598       .  S
O2659      C2661   1.310   1_565  A
O2660     Zr2672   2.354       .  S
O2660      C2661   1.252       .  A
C2661      C3136   1.541       .  S
O2662     Zr2665   2.445   1_565  S
O2662      C2664   1.287       .  A
O2663     Zr2671   2.396       .  S
O2663      C2664   1.280       .  A
C2664      C2940   1.475       .  S
Zr2665     O2666   2.439   1_545  S
Zr2665     O2667   2.432       .  S
Zr2665     O2673   2.385       .  S
Zr2665     O2674   2.351   1_545  S
Zr2665     O2677   2.346       .  S
Zr2665     O2675   2.391       .  S
O2666      H2686   0.987       .  S
O2666      H2691   0.988       .  S
O2667      H2687   0.990       .  S
Zr2668     O2669   2.435       .  S
Zr2668     O2670   2.434       .  S
Zr2668     O2674   2.418       .  S
Zr2668     O2673   2.333   1_565  S
Zr2668     O2678   2.344   1_565  S
Zr2668     O2676   2.415       .  S
O2669      H2685   0.990       .  S
O2670      H2684   0.990       .  S
O2670      H2694   0.990       .  S
Zr2671     O2674   2.406       .  S
Zr2671     O2676   2.403       .  S
Zr2671     O2677   2.381   1_565  S
Zr2672     O2673   2.420       .  S
Zr2672     O2675   2.382       .  S
Zr2672     O2678   2.379       .  S
O2673      H2681   0.961       .  S
O2676      H2680   0.965       .  S
O2677      H2682   0.965       .  S
O2695     Zr2707   2.342       .  S
O2695      C2697   1.269       .  A
O2696     Zr2733   2.518       .  S
O2696      C2697   1.303       .  A
C2697      C3469   1.496       .  S
O2698     Zr2710   2.400       .  S
O2698      C2700   1.281       .  A
O2699     Zr2734   2.434       .  S
O2699      C2700   1.289       .  A
C2700      C2923   1.457       .  S
O2701     Zr2710   2.440       .  S
O2701      C2703   1.286       .  A
O2702     Zr2733   2.450       .  S
O2702      C2703   1.289       .  A
C2703      C3752   1.522       .  S
O2704     Zr2707   2.421       .  S
O2704      C2706   1.282       .  A
O2705     Zr2734   2.406       .  S
O2705      C2706   1.275       .  A
C2706      C2954   1.473       .  S
Zr2707     O2708   2.432       .  S
Zr2707     O2709   2.436       .  S
Zr2707     O2713   2.385       .  S
Zr2707     O2714   2.331       .  S
Zr2707     O2737   2.342       .  S
Zr2707     O2739   2.377       .  S
O2708      H2751   0.989       .  S
O2709      H2750   0.990       .  S
O2709      H2754   0.990       .  S
Zr2710     O2711   2.434       .  S
Zr2710     O2712   2.435       .  S
Zr2710     O2714   2.379       .  S
Zr2710     O2713   2.364       .  S
Zr2710     O2738   2.340       .  S
Zr2710     O2740   2.364       .  S
O2711      H2752   0.989       .  S
O2711      H2755   0.990       .  S
O2712      H2745   0.990       .  S
O2713     Zr2733   2.381       .  S
O2714     Zr2734   2.378       .  S
O2714      H2741   0.966       .  S
O2715     Zr2727   2.407       .  S
O2715      C2717   1.269       .  A
O2716     Zr2734   2.502       .  S
O2716      C2717   1.289       .  A
C2717      C3021   1.515       .  S
O2718     Zr2730   2.475       .  S
O2718      C2720   1.296       .  A
O2719     Zr2733   2.413       .  S
O2719      C2720   1.286       .  A
C2720      C2968   1.476       .  S
O2721     Zr2730   2.593       .  S
O2721      C2723   1.309       .  A
O2722     Zr2734   2.361       .  S
O2722      C2723   1.256       .  A
C2723      C3080   1.529       .  S
O2724     Zr2727   2.399       .  S
O2724      C2726   1.278       .  A
O2725     Zr2733   2.425       .  S
O2725      C2726   1.286       .  A
C2726      C2909   1.490       .  S
Zr2727     O2728   2.433       .  S
Zr2727     O2729   2.426       .  S
Zr2727     O2735   2.375       .  S
Zr2727     O2736   2.357       .  S
Zr2727     O2739   2.356       .  S
Zr2727     O2737   2.368       .  S
O2728      H2748   0.990       .  S
O2728      H2753   0.990       .  S
O2729      H2749   0.990       .  S
Zr2730     O2731   2.434       .  S
Zr2730     O2732   2.436       .  S
Zr2730     O2736   2.411       .  S
Zr2730     O2735   2.345       .  S
Zr2730     O2740   2.347       .  S
Zr2730     O2738   2.404       .  S
O2731      H2747   0.990       .  S
O2732      H2746   0.990       .  S
O2732      H2756   0.990       .  S
Zr2733     O2736   2.405       .  S
Zr2733     O2738   2.412       .  S
Zr2733     O2739   2.371       .  S
Zr2734     O2735   2.412       .  S
Zr2734     O2737   2.363       .  S
Zr2734     O2740   2.384       .  S
O2735      H2743   0.965       .  S
O2738      H2742   0.964       .  S
O2739      H2744   0.966       .  S
O2757      C2759   1.271       .  A
O2758      C2759   1.299       .  A
C2759      C3766   1.487       .  S
O2760     Zr2772   2.393       .  S
O2760      C2762   1.279       .  A
O2761     Zr2796   2.435       .  S
O2761      C2762   1.289       .  A
C2762      C2912   1.485       .  S
O2763     Zr2772   2.482       .  S
O2763      C2765   1.296       .  A
O2764     Zr2795   2.448       .  S
O2764      C2765   1.288       .  A
C2765      C3567   1.520       .  S
O2766     Zr2769   2.442       .  S
O2766      C2768   1.286       .  A
O2767     Zr2796   2.370       .  S
O2767      C2768   1.274       .  A
C2768      C2884   1.484       .  S
Zr2769     O2770   2.433       .  S
Zr2769     O2775   2.392       .  S
Zr2769     O2776   2.348       .  S
O2770      H2813   0.989       .  S
O2771      H2812   0.990       .  S
O2771      H2816   0.991       .  S
Zr2772     O2773   2.435       .  S
Zr2772     O2774   2.433       .  S
Zr2772     O2776   2.399       .  S
Zr2772     O2775   2.365       .  S
Zr2772     O2800   2.332       .  S
Zr2772     O2802   2.393       .  S
O2773      H2814   0.990       .  S
O2773      H2817   0.990       .  S
O2774      H2807   0.990       .  S
O2775     Zr2795   2.367       .  S
O2776     Zr2796   2.375       .  S
O2776      H2803   0.966       .  S
O2777     Zr2789   2.399       .  S
O2777      C2779   1.269       .  A
O2778     Zr2796   2.463       .  S
C2779      C3150   1.500       .  S
O2780     Zr2792   2.489       .  S
O2780      C2782   1.300       .  A
O2781     Zr2795   2.386       .  S
O2781      C2782   1.282       .  A
C2782      C2898   1.493       .  S
O2783     Zr2792   2.608       .  S
O2783      C2785   1.320       .  A
O2784     Zr2796   2.324       .  S
O2784      C2785   1.268       .  A
C2785      C3035   1.519       .  S
O2786     Zr2789   2.392       .  S
O2786      C2788   1.275       .  A
O2787      C2788   1.283       .  A
C2788      C2982   1.451       .  S
Zr2789     O2790   2.441       .  S
Zr2789     O2791   2.430       .  S
Zr2789     O2798   2.347   1_655  S
Zr2789     O2801   2.361       .  S
Zr2789     O2799   2.375   1_655  S
O2790      H2810   0.988       .  S
O2790      H2815   0.990       .  S
O2791      H2811   0.990       .  S
Zr2792     O2793   2.434       .  S
Zr2792     O2794   2.434       .  S
Zr2792     O2797   2.344       .  S
Zr2792     O2802   2.355       .  S
Zr2792     O2800   2.419       .  S
O2793      H2809   0.990       .  S
O2794      H2808   0.990       .  S
O2794      H2818   0.990       .  S
Zr2795     O2800   2.403       .  S
Zr2796     O2797   2.391       .  S
Zr2796     O2802   2.382       .  S
O2797      H2805   0.965       .  S
O2800      H2804   0.966       .  S
O2801      H2806   0.965       .  S
O2819      C2821   1.273       .  A
O2820      C2821   1.302       .  A
C2821      C3654   1.483       .  S
O2822     Zr2834   2.436       .  S
O2822      C2824   1.288       .  A
O2823     Zr2858   2.424       .  S
O2823      C2824   1.288       .  A
C2824      C2937   1.472       .  S
O2825     Zr2834   2.494       .  S
O2825      C2827   1.295       .  A
O2826     Zr2857   2.431       .  S
O2826      C2827   1.286       .  A
C2827      C3486   1.506       .  S
O2828     Zr2831   2.451       .  S
O2828      C2830   1.288       .  A
O2829     Zr2858   2.389       .  S
O2829      C2830   1.274       .  A
C2830      C2895   1.489       .  S
Zr2831     O2832   2.435       .  S
Zr2831     O2837   2.397       .  S
Zr2831     O2838   2.346       .  S
Zr2831     O2861   2.350       .  S
O2832      H2875   0.990       .  S
O2833      H2874   0.990       .  S
O2833      H2878   0.990       .  S
Zr2834     O2835   2.433       .  S
Zr2834     O2836   2.434       .  S
Zr2834     O2838   2.395       .  S
Zr2834     O2837   2.377       .  S
Zr2834     O2862   2.350       .  S
Zr2834     O2864   2.383       .  S
O2835      H2876   0.990       .  S
O2835      H2879   0.990       .  S
O2836      H2869   0.990       .  S
O2837     Zr2857   2.374       .  S
O2838     Zr2858   2.382       .  S
O2838      H2865   0.966       .  S
O2839     Zr2851   2.381       .  S
O2840     Zr2858   2.505       .  S
O2840      C2841   1.284       .  A
O2842     Zr2854   2.471       .  S
O2842      C2844   1.296       .  A
O2843     Zr2857   2.389       .  S
O2843      C2844   1.281       .  A
C2844      C2881   1.494       .  S
O2845     Zr2854   2.607       .  S
O2845      C2847   1.314       .  A
O2846     Zr2858   2.339       .  S
O2846      C2847   1.254       .  A
C2847      C3010   1.529       .  S
O2848     Zr2851   2.412       .  S
O2848      C2850   1.280       .  A
O2849      C2850   1.281       .  A
C2850      C2926   1.461       .  S
Zr2851     O2852   2.439       .  S
Zr2851     O2853   2.433       .  S
Zr2851     O2863   2.341       .  S
O2852      H2872   0.987       .  S
O2852      H2877   0.989       .  S
O2853      H2873   0.990       .  S
Zr2854     O2855   2.431       .  S
Zr2854     O2856   2.434       .  S
Zr2854     O2860   2.414       .  S
Zr2854     O2859   2.332       .  S
Zr2854     O2864   2.339       .  S
Zr2854     O2862   2.412       .  S
O2855      H2871   0.990       .  S
O2856      H2870   0.990       .  S
O2856      H2880   0.990       .  S
Zr2857     O2860   2.399       .  S
Zr2857     O2862   2.410       .  S
Zr2858     O2859   2.405       .  S
Zr2858     O2861   2.367       .  S
Zr2858     O2864   2.383       .  S
O2859      H2867   0.962       .  S
O2862      H2866   0.965       .  S
O2863      H2868   0.965       .  S
C2881      C2882   1.427       .  A
C2881      C2886   1.415       .  A
C2882      C2883   1.405       .  A
C2882      C2887   1.454       .  S
C2883      C2884   1.410       .  A
C2883      C2890   1.456       .  S
C2884      C2885   1.418       .  A
C2885      C2886   1.408       .  A
C2885      C2888   1.453       .  S
C2886      C2889   1.451       .  S
C2888      N2893   1.157       .  T
C2889      N2891   1.157       .  T
C2895      C2896   1.409       .  A
C2895      C2900   1.421       .  A
C2896      C2897   1.407   1_565  A
C2896      C2901   1.452       .  S
C2897      C2898   1.424       .  A
C2897      C2904   1.451       .  S
C2898      C2899   1.413       .  A
C2899      C2900   1.411   1_545  A
C2899      C2902   1.452       .  S
C2900      C2903   1.453       .  S
C2901      N2908   1.157       .  T
C2902      N2907   1.157       .  T
C2903      N2905   1.157       .  T
C2909      C2910   1.415       .  A
C2909      C2914   1.425       .  A
C2910      C2911   1.405       .  A
C2910      C2915   1.455       .  S
C2911      C2912   1.420       .  A
C2911      C2918   1.453       .  S
C2912      C2913   1.411       .  A
C2913      C2914   1.405       .  A
C2913      C2916   1.455       .  S
C2914      C2917   1.452       .  S
C2915      N2922   1.158       .  T
C2916      N2921   1.157       .  T
C2917      N2919   1.157       .  T
C2918      N2920   1.157       .  T
C2923      C2924   1.410       .  A
C2923      C2928   1.409       .  A
C2924      C2925   1.400       .  A
C2924      C2929   1.453       .  S
C2925      C2926   1.405       .  A
C2925      C2932   1.447       .  S
C2926      C2927   1.411       .  A
C2927      C2928   1.406       .  A
C2927      C2930   1.452       .  S
C2928      C2931   1.451       .  S
C2929      N2936   1.157       .  T
C2930      N2935   1.157       .  T
C2931      N2933   1.157       .  T
C2932      N2934   1.156       .  T
C2937      C2938   1.411       .  A
C2937      C2942   1.408       .  A
C2938      C2939   1.407       .  A
C2938      C2943   1.447       .  S
C2939      C2940   1.411       .  A
C2939      C2946   1.453       .  S
C2940      C2941   1.412       .  A
C2941      C2942   1.404       .  A
C2941      C2944   1.446       .  S
C2942      C2945   1.452       .  S
C2943      N2950   1.156       .  T
C2944      N2949   1.156       .  T
C2945      N2947   1.157       .  T
C2946      N2948   1.157       .  T
C2951      C2952   1.415       .  A
C2951      C2956   1.417       .  A
C2952      C2953   1.408       .  A
C2952      C2957   1.452       .  S
C2953      C2954   1.414       .  A
C2953      C2960   1.452       .  S
C2954      C2955   1.407       .  A
C2955      C2956   1.404       .  A
C2955      C2958   1.453       .  S
C2956      C2959   1.449       .  S
C2957      N2964   1.157       .  T
C2958      N2963   1.157       .  T
C2959      N2961   1.156       .  T
C2960      N2962   1.157       .  T
C2965      C2966   1.412       .  A
C2965      C2970   1.411       .  A
C2966      C2967   1.407       .  A
C2966      C2971   1.445       .  S
C2967      C2968   1.409       .  A
C2967      C2974   1.453       .  S
C2968      C2969   1.411       .  A
C2969      C2970   1.413       .  A
C2969      C2972   1.449       .  S
C2970      C2973   1.448       .  S
C2971      N2978   1.155       .  T
C2972      N2977   1.157       .  T
C2973      N2975   1.157       .  T
C2974      N2976   1.157       .  T
C2979      C2980   1.405       .  A
C2979      C2984   1.411       .  A
C2980      C2981   1.395       .  A
C2980      C2985   1.450       .  S
C2981      C2982   1.405       .  A
C2981      C2988   1.450       .  S
C2982      C2983   1.408       .  A
C2983      C2984   1.403       .  A
C2983      C2986   1.452       .  S
C2984      C2987   1.451       .  S
C2985      N2992   1.157       .  T
C2986      N2991   1.157       .  T
C2987      N2989   1.157       .  T
C2988      N2990   1.157       .  T
C2993      C2994   1.406   1_545  A
C2993      C2998   1.414       .  A
C2994      C2995   1.417   1_565  A
C2994      C2999   1.452       .  S
C2995      C2996   1.419       .  A
C2995      C3002   1.434       .  S
C2996      C2997   1.416       .  A
C2997      C2998   1.409       .  A
C2997      C3000   1.451       .  S
C2998      C3001   1.454       .  S
C2999      N3006   1.157       .  T
C3000      N3005   1.156       .  T
C3001      N3003   1.157       .  T
C3002      N3004   1.152   1_545  T
C3007      C3008   1.403       .  A
C3007      C3012   1.433       .  A
C3008      C3009   1.404       .  A
C3008      C3013   1.458       .  S
C3009      C3010   1.431       .  A
C3009      C3016   1.438       .  S
C3010      C3011   1.414       .  A
C3011      C3012   1.437       .  A
C3011      C3014   1.447       .  S
C3012      C3015   1.448       .  S
C3013      N3020   1.157       .  T
C3014      N3019   1.157       .  T
C3015      N3017   1.157       .  T
C3016      N3018   1.153       .  T
C3021      C3022   1.411       .  A
C3021      C3026   1.421       .  A
C3022      C3023   1.417       .  A
C3022      C3027   1.442       .  S
C3023      C3024   1.420       .  A
C3023      C3030   1.454       .  S
C3024      C3025   1.412       .  A
C3025      C3026   1.414       .  A
C3025      C3028   1.449       .  S
C3026      C3029   1.451       .  S
C3027      N3034   1.155       .  T
C3028      N3033   1.156       .  T
C3029      N3031   1.157       .  T
C3030      N3032   1.158       .  T
C3035      C3036   1.420       .  A
C3035      C3040   1.418       .  A
C3036      C3037   1.439       .  A
C3036      C3041   1.447       .  S
C3037      C3038   1.424       .  A
C3037      C3044   1.448       .  S
C3038      C3039   1.417       .  A
C3039      C3040   1.421       .  A
C3039      C3042   1.448       .  S
C3040      C3043   1.450       .  S
C3041      N3048   1.157       .  T
C3042      N3047   1.156       .  T
C3043      N3045   1.157       .  T
C3044      N3046   1.157       .  T
C3049      C3050   1.411       .  A
C3049      C3054   1.409       .  A
C3050      C3051   1.404       .  A
C3050      C3055   1.453       .  S
C3051      C3052   1.409       .  A
C3051      C3058   1.451       .  S
C3052      C3053   1.411       .  A
C3053      C3054   1.410       .  A
C3053      C3056   1.449       .  S
C3054      C3057   1.450       .  S
C3055      N3062   1.157       .  T
C3056      N3061   1.157       .  T
C3057      N3059   1.157       .  T
C3058      N3060   1.157       .  T
C3063      C3064   1.420       .  A
C3063      C3068   1.419       .  A
C3064      C3065   1.417       .  A
C3064      C3069   1.453       .  S
C3065      C3066   1.422       .  A
C3065      C3072   1.451       .  S
C3066      C3067   1.428       .  A
C3067      C3068   1.407       .  A
C3067      C3070   1.456       .  S
C3068      C3071   1.456       .  S
C3069      N3076   1.157       .  T
C3070      N3075   1.157       .  T
C3071      N3073   1.157       .  T
C3072      N3074   1.157       .  T
C3077      C3078   1.399       .  A
C3077      C3082   1.431       .  A
C3078      C3079   1.408       .  A
C3078      C3083   1.460       .  S
C3079      C3080   1.431       .  A
C3079      C3086   1.434       .  S
C3080      C3081   1.415       .  A
C3081      C3082   1.438       .  A
C3081      C3084   1.447       .  S
C3082      C3085   1.447       .  S
C3083      N3090   1.157       .  T
C3084      N3089   1.157       .  T
C3085      N3087   1.157       .  T
C3086      N3088   1.151       .  T
C3091      C3092   1.403       .  A
C3091      C3096   1.408       .  A
C3093      C3100   1.439       .  S
C3094      C3095   1.424       .  A
C3095      C3096   1.413       .  A
C3095      C3098   1.453       .  S
C3096      C3099   1.450       .  S
C3097      N3104   1.156       .  T
C3098      N3103   1.158       .  T
C3099      N3101   1.157       .  T
C3100      N3102   1.154       .  T
C3105      C3106   1.418       .  A
C3105      C3110   1.413       .  A
C3106      C3107   1.407       .  A
C3106      C3111   1.453       .  S
C3107      C3108   1.412       .  A
C3107      C3114   1.450       .  S
C3108      C3109   1.416       .  A
C3109      C3110   1.401       .  A
C3109      C3112   1.453       .  S
C3111      N3118   1.157       .  T
C3112      N3117   1.157       .  T
C3113      N3115   1.157       .  T
C3114      N3116   1.157       .  T
C3119      C3120   1.420       .  A
C3119      C3124   1.414       .  A
C3120      C3121   1.415       .  A
C3120      C3125   1.451       .  S
C3121      C3122   1.419       .  A
C3121      C3128   1.453       .  S
C3122      C3123   1.419       .  A
C3123      C3124   1.412       .  A
C3123      C3126   1.452       .  S
C3124      C3127   1.449       .  S
C3125      N3132   1.157       .  T
C3126      N3131   1.157       .  T
C3127      N3129   1.156       .  T
C3128      N3130   1.158       .  T
C3133      C3134   1.400       .  A
C3133      C3138   1.422       .  A
C3134      C3135   1.417       .  A
C3134      C3139   1.456       .  S
C3135      C3136   1.442       .  A
C3135      C3142   1.447       .  S
C3136      C3137   1.416       .  A
C3137      C3138   1.432       .  A
C3137      C3140   1.449   1_545  S
C3138      C3141   1.441       .  S
C3139      N3146   1.157       .  T
C3140      N3145   1.157       .  T
C3141      N3143   1.155       .  T
C3142      N3144   1.155       .  T
C3147      C3148   1.427       .  A
C3147      C3152   1.412       .  A
C3148      C3149   1.413       .  A
C3148      C3153   1.448       .  S
C3149      C3150   1.407       .  A
C3150      C3151   1.417       .  A
C3151      C3152   1.411       .  A
C3151      C3154   1.450       .  S
C3152      C3155   1.450       .  S
C3153      N3160   1.157   1_655  T
C3154      N3159   1.158       .  T
C3155      N3157   1.157       .  T
C3156      N3158   1.157       .  T
C3161      C3166   1.413       .  A
C3162      C3163   1.408       .  A
C3162      C3167   1.444       .  S
C3163      C3164   1.409       .  A
C3163      C3170   1.451       .  S
C3164      C3165   1.411       .  A
C3165      C3168   1.451   1_545  S
C3166      C3169   1.449       .  S
C3168      N3173   1.157       .  T
C3169      N3171   1.157       .  T
C3170      N3172   1.157       .  T
C3175      C3176   1.425       .  A
C3175      C3180   1.422       .  A
C3176      C3177   1.407       .  A
C3176      C3181   1.455   1_565  S
C3177      C3178   1.412       .  A
C3177      C3184   1.451       .  S
C3178      C3179   1.422       .  A
C3179      C3180   1.406       .  A
C3179      C3182   1.456       .  S
C3180      C3183   1.455       .  S
C3181      N3188   1.158       .  T
C3182      N3187   1.157       .  T
C3183      N3185   1.157       .  T
C3184      N3186   1.157       .  T
C3189      C3190   1.411       .  A
C3189      C3194   1.411       .  A
C3190      C3191   1.407       .  A
C3190      C3195   1.451       .  S
C3191      C3192   1.410       .  A
C3191      C3198   1.452       .  S
C3192      C3193   1.409       .  A
C3193      C3194   1.409       .  A
C3193      C3196   1.451       .  S
C3194      C3197   1.450       .  S
C3195      N3202   1.157       .  T
C3196      N3201   1.157       .  T
C3197      N3199   1.157       .  T
C3198      N3200   1.157       .  T
C3203      C3204   1.413       .  A
C3203      C3208   1.412       .  A
C3204      C3205   1.410       .  A
C3204      C3209   1.451       .  S
C3205      C3206   1.417       .  A
C3205      C3212   1.452       .  S
C3206      C3207   1.412       .  A
C3207      C3208   1.403       .  A
C3207      C3210   1.448       .  S
C3208      C3211   1.452       .  S
C3209      N3216   1.157       .  T
C3210      N3215   1.156       .  T
C3211      N3213   1.157       .  T
C3212      N3214   1.157       .  T
C3217      C3218   1.417       .  A
C3217      C3222   1.422       .  A
C3218      C3219   1.409       .  A
C3218      C3223   1.452       .  S
C3219      C3220   1.415       .  A
C3219      C3226   1.441       .  S
C3220      C3221   1.421       .  A
C3221      C3222   1.419       .  A
C3221      C3224   1.453       .  S
C3223      N3230   1.157       .  T
C3225      N3227   1.158       .  T
C3226      N3228   1.154       .  T
C3231      C3232   1.403       .  A
C3231      C3236   1.422       .  A
C3232      C3233   1.420       .  A
C3232      C3237   1.446       .  S
C3233      C3234   1.436       .  A
C3233      C3240   1.448       .  S
C3234      C3235   1.420       .  A
C3235      C3236   1.429       .  A
C3235      C3238   1.451       .  S
C3236      C3239   1.439       .  S
C3237      N3244   1.158       .  T
C3238      N3243   1.158       .  T
C3239      N3241   1.154       .  T
C3240      N3242   1.157       .  T
C3245      C3246   1.397       .  A
C3245      C3250   1.413       .  A
C3246      C3247   1.420       .  A
C3246      C3251   1.449       .  S
C3247      C3248   1.428       .  A
C3247      C3254   1.437       .  S
C3248      C3249   1.423       .  A
C3249      C3250   1.411       .  A
C3249      C3252   1.453       .  S
C3251      N3258   1.157       .  T
C3252      N3257   1.157       .  T
C3253      N3255   1.157       .  T
C3254      N3256   1.155       .  T
C3259      C3260   1.415       .  A
C3259      C3264   1.424       .  A
C3260      C3261   1.436       .  A
C3260      C3265   1.448       .  S
C3261      C3262   1.428       .  A
C3261      C3268   1.448       .  S
C3262      C3263   1.423       .  A
C3263      C3264   1.410       .  A
C3263      C3266   1.455   1_565  S
C3264      C3267   1.456       .  S
C3265      N3272   1.157       .  T
C3266      N3271   1.157       .  T
C3267      N3269   1.157   1_565  T
C3268      N3270   1.157       .  T
C3273      C3274   1.425       .  A
C3273      C3278   1.425       .  A
C3274      C3275   1.417       .  A
C3274      C3279   1.450       .  S
C3275      C3276   1.410       .  A
C3275      C3282   1.453       .  S
C3276      C3277   1.412       .  A
C3277      C3278   1.421       .  A
C3278      C3281   1.451       .  S
C3279      N3286   1.157   1_556  T
C3280      N3285   1.157       .  T
C3282      N3284   1.157       .  T
C3287      C3288   1.407   1_554  A
C3287      C3292   1.406       .  A
C3288      C3289   1.405       .  A
C3288      C3293   1.457       .  S
C3289      C3290   1.429   1_556  A
C3289      C3296   1.454       .  S
C3290      C3291   1.429       .  A
C3291      C3292   1.415       .  A
C3291      C3294   1.451       .  S
C3292      C3295   1.451       .  S
C3293      N3300   1.157       .  T
C3294      N3299   1.158       .  T
C3295      N3297   1.157       .  T
C3296      N3298   1.158       .  T
C3301      C3302   1.420       .  A
C3301      C3306   1.432       .  A
C3302      C3303   1.400       .  A
C3302      C3307   1.455       .  S
C3303      C3304   1.420       .  A
C3303      C3310   1.454       .  S
C3304      C3305   1.410       .  A
C3305      C3306   1.428       .  A
C3305      C3308   1.450       .  S
C3306      C3309   1.449       .  S
C3307      N3314   1.157       .  T
C3308      N3313   1.157       .  T
C3309      N3311   1.158       .  T
C3310      N3312   1.157       .  T
C3315      C3316   1.402       .  A
C3315      C3320   1.421       .  A
C3316      C3317   1.416       .  A
C3316      C3321   1.448       .  S
C3317      C3318   1.433       .  A
C3317      C3324   1.448       .  S
C3318      C3319   1.401       .  A
C3319      C3320   1.409       .  A
C3319      C3322   1.456       .  S
C3320      C3323   1.431       .  S
C3321      N3328   1.157   1_565  T
C3322      N3327   1.157       .  T
C3323      N3325   1.150       .  T
C3324      N3326   1.157       .  T
C3329      C3330   1.407       .  A
C3329      C3334   1.398       .  A
C3330      C3331   1.412       .  A
C3330      C3335   1.448       .  S
C3331      C3332   1.423       .  A
C3331      C3338   1.452       .  S
C3332      C3333   1.434       .  A
C3333      C3334   1.394       .  A
C3333      C3336   1.454   1_556  S
C3334      C3337   1.459   1_556  S
C3335      N3342   1.156       .  T
C3336      N3341   1.157       .  T
C3337      N3339   1.157       .  T
C3338      N3340   1.158       .  T
C3343      C3344   1.410   1_556  A
C3343      C3348   1.420       .  A
C3344      C3345   1.418   1_554  A
C3344      C3349   1.441       .  S
C3345      C3346   1.418       .  A
C3345      C3352   1.453   1_556  S
C3346      C3347   1.416       .  A
C3347      C3348   1.422       .  A
C3347      C3350   1.449   1_565  S
C3348      C3351   1.451       .  S
C3349      N3356   1.153       .  T
C3350      N3355   1.157       .  T
C3351      N3353   1.157       .  T
C3352      N3354   1.157       .  T
C3357      C3358   1.428       .  A
C3357      C3362   1.434       .  A
C3358      C3359   1.415       .  A
C3358      C3363   1.457       .  S
C3359      C3360   1.423       .  A
C3359      C3366   1.454       .  S
C3360      C3361   1.415       .  A
C3361      C3362   1.437       .  A
C3361      C3364   1.448       .  S
C3362      C3365   1.448       .  S
C3363      N3370   1.157       .  T
C3364      N3369   1.157       .  T
C3365      N3367   1.158       .  T
C3366      N3368   1.157       .  T
C3371      C3372   1.407       .  A
C3371      C3376   1.413       .  A
C3372      C3373   1.412       .  A
C3372      C3377   1.453       .  S
C3373      C3374   1.415       .  A
C3373      C3380   1.418       .  S
C3374      C3375   1.430       .  A
C3375      C3376   1.427       .  A
C3375      C3378   1.450       .  S
C3376      C3379   1.449       .  S
C3377      N3384   1.157       .  T
C3378      N3383   1.158       .  T
C3379      N3381   1.157       .  T
C3380      N3382   1.146       .  T
C3385      C3386   1.409       .  A
C3385      C3390   1.422   1_556  A
C3386      C3387   1.420       .  A
C3386      C3391   1.449       .  S
C3387      C3388   1.423       .  A
C3387      C3394   1.449       .  S
C3388      C3389   1.404   1_556  A
C3389      C3390   1.413       .  A
C3389      C3392   1.445       .  S
C3390      C3393   1.451       .  S
C3391      N3398   1.157       .  T
C3392      N3397   1.156       .  T
C3393      N3395   1.157       .  T
C3394      N3396   1.157       .  T
C3399      C3400   1.412       .  A
C3399      C3404   1.423       .  A
C3400      C3401   1.412       .  A
C3400      C3405   1.450       .  S
C3401      C3402   1.418   1_556  A
C3401      C3408   1.452       .  S
C3402      C3403   1.410       .  A
C3403      C3404   1.412   1_554  A
C3403      C3406   1.451       .  S
C3404      C3407   1.453   1_556  S
C3405      N3412   1.157       .  T
C3406      N3411   1.158       .  T
C3407      N3409   1.157       .  T
C3408      N3410   1.157       .  T
C3413      C3414   1.422       .  A
C3413      C3418   1.411       .  A
C3414      C3415   1.413   1_556  A
C3414      C3419   1.453   1_556  S
C3415      C3416   1.413   1_544  A
C3415      C3422   1.452   1_545  S
C3416      C3417   1.422   1_565  A
C3417      C3418   1.409       .  A
C3417      C3420   1.450       .  S
C3418      C3421   1.454       .  S
C3419      N3426   1.157       .  T
C3420      N3425   1.156   1_545  T
C3421      N3423   1.157       .  T
C3422      N3424   1.157       .  T
C3427      C3428   1.407   1_554  A
C3427      C3432   1.417       .  A
C3428      C3429   1.412       .  A
C3428      C3433   1.450       .  S
C3429      C3430   1.422   1_556  A
C3429      C3436   1.452       .  S
C3430      C3431   1.413       .  A
C3431      C3432   1.419       .  A
C3431      C3434   1.450       .  S
C3432      C3435   1.450       .  S
C3433      N3440   1.157       .  T
C3434      N3439   1.157       .  T
C3435      N3437   1.157       .  T
C3436      N3438   1.157       .  T
C3441      C3442   1.410       .  A
C3441      C3446   1.436       .  A
C3442      C3443   1.431       .  A
C3442      C3447   1.442       .  S
C3443      C3444   1.424       .  A
C3443      C3450   1.441       .  S
C3444      C3445   1.402       .  A
C3445      C3446   1.415       .  A
C3445      C3448   1.456       .  S
C3446      C3449   1.447       .  S
C3447      N3454   1.155       .  T
C3448      N3453   1.157       .  T
C3449      N3451   1.155       .  T
C3450      N3452   1.153       .  T
C3455      C3456   1.423       .  A
C3455      C3460   1.430       .  A
C3456      C3457   1.434       .  A
C3456      C3461   1.447       .  S
C3457      C3458   1.422       .  A
C3457      C3464   1.450       .  S
C3458      C3459   1.413       .  A
C3459      C3460   1.428       .  A
C3459      C3462   1.444       .  S
C3460      C3463   1.452       .  S
C3461      N3468   1.157       .  T
C3462      N3467   1.155       .  T
C3463      N3465   1.157       .  T
C3464      N3466   1.157       .  T
C3469      C3470   1.407       .  A
C3469      C3474   1.418       .  A
C3470      C3471   1.426       .  A
C3470      C3475   1.450       .  S
C3471      C3472   1.424       .  A
C3471      C3478   1.429       .  S
C3472      C3473   1.417       .  A
C3473      C3474   1.409       .  A
C3473      C3476   1.453       .  S
C3474      C3477   1.452       .  S
C3475      N3482   1.158       .  T
C3476      N3481   1.157       .  T
C3477      N3479   1.157       .  T
C3478      N3480   1.150       .  T
C3483      C3484   1.416       .  A
C3483      C3488   1.419       .  A
C3484      C3485   1.410       .  A
C3484      C3489   1.441       .  S
C3485      C3486   1.404       .  A
C3485      C3492   1.449       .  S
C3486      C3487   1.420       .  A
C3487      C3488   1.434       .  A
C3487      C3490   1.449       .  S
C3488      C3491   1.444       .  S
C3489      N3496   1.154       .  T
C3490      N3495   1.157       .  T
C3491      N3493   1.158       .  T
C3492      N3494   1.157       .  T
C3497      C3498   1.409       .  A
C3497      C3502   1.417       .  A
C3498      C3499   1.435       .  A
C3498      C3503   1.450       .  S
C3499      C3500   1.429       .  A
C3499      C3506   1.436       .  S
C3500      C3501   1.427       .  A
C3501      C3502   1.416       .  A
C3501      C3504   1.453       .  S
C3502      C3505   1.454       .  S
C3503      N3510   1.157       .  T
C3504      N3509   1.158       .  T
C3505      N3507   1.157       .  T
C3506      N3508   1.154       .  T
C3511      C3512   1.403   1_565  A
C3511      C3516   1.408       .  A
C3512      C3513   1.419       .  A
C3512      C3517   1.448       .  S
C3513      C3514   1.425       .  A
C3513      C3520   1.447       .  S
C3514      C3515   1.423       .  A
C3515      C3516   1.425   1_545  A
C3515      C3518   1.450       .  S
C3516      C3519   1.447       .  S
C3517      N3524   1.157       .  T
C3518      N3523   1.157       .  T
C3519      N3521   1.157       .  T
C3520      N3522   1.157       .  T
C3525      C3526   1.418       .  A
C3525      C3530   1.406       .  A
C3526      C3527   1.417       .  A
C3526      C3531   1.450       .  S
C3527      C3528   1.411       .  A
C3527      C3534   1.449       .  S
C3528      C3529   1.412       .  A
C3529      C3530   1.403       .  A
C3529      C3532   1.454       .  S
C3530      C3533   1.439       .  S
C3531      N3538   1.157       .  T
C3532      N3537   1.157       .  T
C3533      N3535   1.152       .  T
C3534      N3536   1.157       .  T
C3539      C3540   1.422       .  A
C3539      C3544   1.412       .  A
C3540      C3541   1.408       .  A
C3540      C3545   1.452       .  S
C3541      C3542   1.412       .  A
C3541      C3548   1.454       .  S
C3542      C3543   1.411       .  A
C3543      C3544   1.403       .  A
C3543      C3546   1.452       .  S
C3544      C3547   1.444       .  S
C3545      N3552   1.157       .  T
C3546      N3551   1.156       .  T
C3547      N3549   1.153       .  T
C3548      N3550   1.157       .  T
C3553      C3554   1.425       .  A
C3553      C3558   1.417       .  A
C3554      C3555   1.405       .  A
C3554      C3559   1.448       .  S
C3555      C3556   1.392       .  A
C3555      C3562   1.449       .  S
C3556      C3557   1.420       .  A
C3557      C3558   1.426       .  A
C3557      C3560   1.452       .  S
C3558      C3561   1.442       .  S
C3559      N3566   1.157       .  T
C3560      N3565   1.157       .  T
C3561      N3563   1.155       .  T
C3562      N3564   1.156       .  T
C3567      C3568   1.427       .  A
C3567      C3572   1.407       .  A
C3568      C3569   1.438       .  A
C3568      C3573   1.446       .  S
C3569      C3570   1.416       .  A
C3569      C3576   1.447       .  S
C3570      C3571   1.433       .  A
C3571      C3572   1.409       .  A
C3571      C3574   1.452       .  S
C3572      C3575   1.454       .  S
C3573      N3580   1.156       .  T
C3574      N3579   1.156       .  T
C3575      N3577   1.157       .  T
C3576      N3578   1.157       .  T
C3581      C3582   1.414       .  A
C3581      C3586   1.426       .  A
C3582      C3583   1.410       .  A
C3582      C3587   1.453       .  S
C3583      C3584   1.407       .  A
C3583      C3590   1.440       .  S
C3584      C3585   1.402       .  A
C3585      C3586   1.416       .  A
C3585      C3588   1.449       .  S
C3586      C3589   1.449       .  S
C3587      N3594   1.157       .  T
C3588      N3593   1.158       .  T
C3589      N3591   1.157       .  T
C3590      N3592   1.154       .  T
C3595      C3596   1.405       .  A
C3595      C3600   1.427       .  A
C3596      C3597   1.416       .  A
C3596      C3601   1.455       .  S
C3597      C3598   1.432   1_565  A
C3597      C3604   1.451   1_565  S
C3598      C3599   1.404       .  A
C3599      C3600   1.422   1_545  A
C3599      C3602   1.449   1_655  S
C3600      C3603   1.449       .  S
C3601      N3608   1.157       .  T
C3603      N3605   1.156   1_655  T
C3604      N3606   1.157       .  T
C3609      C3610   1.408       .  A
C3609      C3614   1.416   1_655  A
C3610      C3615   1.448       .  S
C3611      C3612   1.415       .  A
C3611      C3618   1.453       .  S
C3612      C3613   1.405       .  A
C3613      C3616   1.450       .  S
C3614      C3617   1.451       .  S
C3615      N3622   1.155       .  T
C3616      N3621   1.157       .  T
C3617      N3619   1.156       .  T
C3618      N3620   1.157       .  T
C3623      C3624   1.407       .  A
C3623      C3628   1.415   1_545  A
C3624      C3625   1.413       .  A
C3624      C3629   1.451       .  S
C3625      C3626   1.420       .  A
C3625      C3632   1.451       .  S
C3626      C3627   1.410   1_545  A
C3627      C3628   1.408       .  A
C3627      C3630   1.451       .  S
C3628      C3631   1.453       .  S
C3629      N3636   1.157       .  T
C3630      N3635   1.157       .  T
C3631      N3633   1.157       .  T
C3632      N3634   1.157       .  T
C3637      C3638   1.399       .  A
C3637      C3642   1.422       .  A
C3638      C3639   1.404       .  A
C3638      C3643   1.458       .  S
C3639      C3640   1.430       .  A
C3639      C3646   1.445       .  S
C3640      C3641   1.418       .  A
C3641      C3642   1.435       .  A
C3641      C3644   1.447       .  S
C3642      C3645   1.446       .  S
C3643      N3650   1.157   1_565  T
C3644      N3649   1.157       .  T
C3645      N3647   1.157       .  T
C3646      N3648   1.154       .  T
C3651      C3652   1.430       .  A
C3651      C3656   1.417       .  A
C3652      C3653   1.401       .  A
C3652      C3657   1.447       .  S
C3653      C3654   1.384       .  A
C3653      C3660   1.447       .  S
C3654      C3655   1.424       .  A
C3655      C3656   1.427       .  A
C3655      C3658   1.448       .  S
C3656      C3659   1.447       .  S
C3657      N3664   1.157       .  T
C3658      N3663   1.157       .  T
C3659      N3661   1.157       .  T
C3665      C3666   1.414       .  A
C3665      C3670   1.426       .  A
C3666      C3667   1.426       .  A
C3666      C3671   1.448       .  S
C3667      C3668   1.420       .  A
C3667      C3674   1.447       .  S
C3668      C3669   1.406       .  A
C3669      C3670   1.395       .  A
C3669      C3672   1.455       .  S
C3670      C3673   1.456       .  S
C3671      N3678   1.157       .  T
C3672      N3677   1.156       .  T
C3673      N3675   1.157       .  T
C3674      N3676   1.157       .  T
C3679      C3680   1.438       .  A
C3679      C3684   1.402       .  A
C3680      C3681   1.401       .  A
C3680      C3685   1.452       .  S
C3681      C3682   1.393       .  A
C3681      C3688   1.455       .  S
C3682      C3683   1.423       .  A
C3683      C3684   1.407       .  A
C3683      C3686   1.451       .  S
C3684      C3687   1.452       .  S
C3685      N3692   1.158   1_655  T
C3686      N3691   1.157       .  T
C3687      N3689   1.157       .  T
C3688      N3690   1.157       .  T
C3693      C3698   1.415       .  A
C3694      C3695   1.418       .  A
C3695      C3696   1.413       .  A
C3695      C3702   1.450       .  S
C3696      C3697   1.413       .  A
C3697      C3700   1.451       .  S
C3698      C3701   1.450       .  S
C3699      N3706   1.157       .  T
C3700      N3705   1.157       .  T
C3701      N3703   1.157       .  T
C3702      N3704   1.157       .  T
C3707      C3708   1.413       .  A
C3707      C3712   1.427       .  A
C3708      C3709   1.416       .  A
C3708      C3713   1.453       .  S
C3709      C3710   1.432       .  A
C3709      C3716   1.453       .  S
C3710      C3711   1.412       .  A
C3711      C3712   1.410       .  A
C3711      C3714   1.453       .  S
C3712      C3715   1.452       .  S
C3713      N3720   1.157       .  T
C3714      N3719   1.157       .  T
C3715      N3717   1.157       .  T
C3716      N3718   1.157       .  T
C3721      C3722   1.421       .  A
C3721      C3726   1.423       .  A
C3722      C3723   1.405       .  A
C3722      C3727   1.455       .  S
C3723      C3724   1.420       .  A
C3723      C3730   1.457       .  S
C3724      C3725   1.416       .  A
C3725      C3726   1.402       .  A
C3725      C3728   1.455       .  S
C3726      C3729   1.457       .  S
C3727      N3734   1.158       .  T
C3728      N3733   1.157       .  T
C3729      N3731   1.158       .  T
C3730      N3732   1.158       .  T
C3735      C3736   1.405       .  A
C3735      C3740   1.432       .  A
C3736      C3737   1.415       .  A
C3736      C3741   1.455       .  S
C3737      C3738   1.444       .  A
C3737      C3744   1.454       .  S
C3738      C3739   1.410       .  A
C3739      C3740   1.416       .  A
C3739      C3742   1.448       .  S
C3740      C3743   1.453       .  S
C3741      N3748   1.157       .  T
C3742      N3747   1.156       .  T
C3743      N3745   1.157       .  T
C3744      N3746   1.158       .  T
C3749      C3750   1.413       .  A
C3749      C3754   1.422       .  A
C3750      C3751   1.432       .  A
C3750      C3755   1.448       .  S
C3751      C3752   1.428       .  A
C3751      C3758   1.448       .  S
C3752      C3753   1.419       .  A
C3753      C3754   1.398       .  A
C3753      C3756   1.455       .  S
C3754      C3757   1.454       .  S
C3755      N3762   1.157       .  T
C3756      N3761   1.157       .  T
C3757      N3759   1.158       .  T
C3758      N3760   1.158       .  T
C3763      C3764   1.426       .  A
C3763      C3768   1.427       .  A
C3764      C3765   1.424       .  A
C3764      C3769   1.439       .  S
C3765      C3766   1.401       .  A
C3765      C3772   1.448       .  S
C3766      C3767   1.408       .  A
C3767      C3768   1.413       .  A
C3767      C3770   1.450   1_655  S
C3768      C3771   1.452       .  S
C3769      N3776   1.155       .  T
C3771      N3773   1.157       .  T
C3772      N3774   1.157       .  T
