geometry optimzed in LAMMPS
_audit_creation_date              2020-11-30 
_audit_creation_method            'lammps2cif' 
_symmetry_space_group_name_H-M    'P1' 
_symmetry_Int_Tables_number       1 
_symmetry_cell_setting            triclinic 
loop_ 
_symmetry_equiv_pos_as_xyz 
  x,y,z 
_cell_length_a                    40.70958253 
_cell_length_b                    39.856592006764785 
_cell_length_c                    41.39115079978824 
_cell_angle_alpha                 84.4561884003577 
_cell_angle_beta                  90.16937353126912 
_cell_angle_gamma                 90.16076617775761 
loop_ 
_atom_site_label 
_atom_site_type_symbol 
_atom_site_fract_x 
_atom_site_fract_y 
_atom_site_fract_z 
_atom_site_charge 
C1          C  0.04341951  0.03021357  0.03289765     0.44900
H2          H  0.02999609  0.01945176  0.01308814    -0.04100
C3          C  0.07331802  0.05294819  0.08134278     0.44900
H4          H  0.08401549  0.06053448  0.10390534    -0.04100
C5          C  0.05745197  0.06637604  0.02572427    -0.17800
C6          C  0.02104447  0.03464311  0.06089596    -0.17600
C7          C  0.07201146  0.00794419  0.04684138    -0.18000
C8          C  0.07644227  0.07713149  0.05075632    -0.17900
C9          C  0.03707917  0.04612537  0.08641900    -0.17500
C10         C  0.08818145  0.02121057  0.07180821    -0.17800
C11         C  0.47309319  0.27099384  0.24638073     0.44900
H12         H  0.49097682  0.25717607  0.26300448    -0.04100
C13         C  0.43145139  0.30322816  0.20686829     0.44900
H14         H  0.41359128  0.31728766  0.19026614    -0.04100
C15         C  0.48692000  0.28258419  0.21186769    -0.17800
C16         C  0.44168125  0.25080280  0.24028539    -0.17600
C17         C  0.45948317  0.30350042  0.25874731    -0.18000
C18         C  0.46410112  0.29890692  0.19168390    -0.17900
C19         C  0.42065861  0.26799508  0.21855067    -0.17500
C20         C  0.43847680  0.32044926  0.23696956    -0.17800
C21         C  0.00042195  0.16059384  0.43306183     0.85900
C22         C  0.01867606  0.19359183  0.43493371    -0.54300
C23         C  0.00934901  0.21842543  0.41200031     0.08800
C24         C  0.48325207  0.20434117  0.38815377     0.19800
C25         C  0.46285882  0.16931430  0.43396418    -0.55000
C26         C  0.45535295  0.19561175  0.41155548     0.08900
C27         C  0.00995115  0.15155003  0.39992516    -0.54600
C28         C  0.49372346  0.16826751  0.37671665     0.09500
H29         H  0.03584170  0.19774638  0.45430702     0.14000
H30         H  0.47745593  0.22343179  0.36769790    -0.00200
H31         H  0.44622250  0.15958842  0.45305939     0.14300
H32         H  0.02373148  0.12885792  0.39652955     0.14100
C33         C  0.28831020  0.16665073  0.25543978     0.85900
C34         C  0.31195606  0.19604400  0.26005398    -0.54300
C35         C  0.33175147  0.19155963  0.28675429     0.08800
C36         C  0.32295271  0.16046673  0.30906908     0.19800
C37         C  0.31247521  0.13492095  0.25925950    -0.55000
C38         C  0.33125671  0.13266251  0.28835146     0.08900
C39         C  0.26791641  0.16121761  0.28574000    -0.54600
C40         C  0.28543038  0.15975894  0.31321530     0.09500
H41         H  0.31834949  0.21414073  0.23970676     0.14000
H42         H  0.33632259  0.15887479  0.33263707    -0.00200
H43         H  0.31591289  0.11807805  0.24048570     0.14300
H44         H  0.24134840  0.16409578  0.28610372     0.14100
C45         C  0.32206584  0.00587230  0.39961954     0.85900
C46         C  0.31924558  0.48902717  0.43311140    -0.54300
C47         C  0.34039183  0.50197441  0.45516042     0.08800
C48         C  0.36087981  0.03443703  0.43818787     0.19800
C49         C  0.31235469  0.04246364  0.40587065    -0.55000
C50         C  0.33249999  0.05680926  0.42667260     0.08900
C51         C  0.35849286  0.00278966  0.39281174    -0.54600
C52         C  0.37684481  0.02727157  0.40326908     0.09500
H53         H  0.30306569  0.46758528  0.43905457     0.14000
H54         H  0.37813290  0.04631213  0.45453263    -0.00200
H55         H  0.29071622  0.05537493  0.39562257     0.14300
H56         H  0.36353941  0.49035953  0.37111560     0.14100
O57         O  0.39375328  0.03847212  0.25238736    -0.81500
O58         O  0.44688462  0.13372427  0.35661136    -0.66200
O59         O  0.42207737  0.07197312  0.29505727    -1.12800
C60         C  0.00697209  0.00107973  0.33840786     1.05400
O61         O  0.49902359  0.12342046  0.34313117    -0.79400
O62         O  0.03148269  0.07549340  0.31393789    -0.66900
Ni63       Ni  0.38715401  0.04177375  0.29785077     1.34900
C64         C  0.02204296  0.08257679  0.28493635     0.84200
O65         O  0.38530452  0.12151663  0.31591738    -0.79900
O66         O  0.35896604  0.08033017  0.28981760    -0.90200
C67         C  0.47794806  0.14228430  0.35582892     0.83700
O68         O  0.38011362  0.03919910  0.34425404    -0.68400
O69         O  0.01257000  0.02274751  0.35939330    -0.87700
C70         C  0.38914195  0.04957868  0.37131223     0.84600
C71         C  0.36061169  0.11035674  0.29853063     1.06100
H72         H  0.45591144  0.04937156  0.35400219     0.37900
O73         O  0.46390356  0.06612244  0.33749400    -1.10300
O74         O  0.49118278  0.07813096  0.27609646    -0.67000
Ni75       Ni  0.45952028  0.04479328  0.29865073     1.26300
O76         O  0.40790530  0.07541216  0.36990393    -0.67200
O77         O  0.49611837  0.51157694  0.30981370    -0.79500
C78         C  0.42025774  0.02822988  0.23989421     0.83900
O79         O  0.44825167  0.02651432  0.25601365    -0.66700
Ni80       Ni  0.00629886  0.07305679  0.35290860     1.27400
Ni81       Ni  0.42846729  0.09888628  0.32943402     1.26100
H82         H  0.42234432  0.08617849  0.27474137     0.38500
C83         C  0.31834179  0.22068062  0.42049629     0.44900
H84         H  0.32906852  0.21101408  0.39856576    -0.04100
C85         C  0.29090924  0.24517982  0.46954027     0.44900
H86         H  0.27901123  0.25580021  0.49042621    -0.04100
C87         C  0.31921181  0.19608765  0.45100757    -0.17800
C88         C  0.33451695  0.25270132  0.42917592    -0.17600
C89         C  0.28237793  0.22826124  0.41634349    -0.18000
C90         C  0.30588546  0.20981874  0.47751237    -0.17900
C91         C  0.31888586  0.26694275  0.45393857    -0.17500
C92         C  0.26720363  0.23958790  0.44239099    -0.17800
C93         C  0.17823225  0.43926474  0.99840478     0.85900
C94         C  0.21038137  0.43464411  0.01708599    -0.54300
C95         C  0.23303376  0.41453740  0.00354484     0.08800
C96         C  0.21652902  0.39649632  0.47317779     0.19800
C97         C  0.18861985  0.44969240  0.46370375    -0.55000
C98         C  0.20905894  0.42775008  0.45056930     0.08900
C99         C  0.16417419  0.40466417  0.99796006    -0.54600
C100        C  0.18043581  0.38206179  0.48205042     0.09500
H101        H  0.21669689  0.45086437  0.03578312     0.14000
H102        H  0.23312484  0.37812411  0.46312333    -0.00200
H103        H  0.18195306  0.47339556  0.45045929     0.14300
H104        H  0.13856495  0.39996382  0.00506810     0.14100
C105        C  0.18256125  0.25906387  0.35205811     0.85900
C106        C  0.18073853  0.23559526  0.32460803    -0.54300
C107        C  0.16145468  0.24881554  0.29878682     0.08800
C108        C  0.14494673  0.28380900  0.30548030     0.19800
C109        C  0.19511178  0.29252794  0.33321013    -0.55000
C110        C  0.17521525  0.30480175  0.30841940     0.08900
C111        C  0.14706959  0.26290134  0.36163074    -0.54600
C112        C  0.13003969  0.28360074  0.34104528     0.09500
H113        H  0.19585636  0.21329509  0.32386992     0.14000
H114        H  0.12775101  0.29339561  0.28590333    -0.00200
H115        H  0.21776517  0.30509373  0.33886381     0.14300
H116        H  0.13950837  0.25855434  0.38699860     0.14100
C117        C  0.01522991  0.41064903  0.32186604     0.85900
C118        C  0.49695431  0.44292300  0.32580528    -0.54300
C119        C  0.01240777  0.46398215  0.34641422     0.08800
C120        C  0.04350549  0.44470434  0.36460776     0.19800
C121        C  0.05051863  0.42345103  0.31330338    -0.55000
C122        C  0.06511680  0.44213885  0.33555609     0.08900
C123        C  0.01391591  0.39452176  0.35610569    -0.54600
C124        C  0.03563561  0.40559370  0.37663288     0.09500
H125        H  0.47670046  0.45164859  0.31006608     0.14000
H126        H  0.05367644  0.45899428  0.38396539     0.02600
H127        H  0.05946491  0.42447611  0.28875141     0.14300
H128        H  0.00093138  0.37067479  0.36125329     0.14100
O129        O  0.01721297  0.27810003  0.39585976    -0.81500
O130        O  0.14468812  0.36419280  0.43704113    -0.66200
O131        O  0.08001401  0.29670343  0.41765859    -1.12800
C132        C  0.01806547  0.34435837  0.99758253     1.05400
O133        O  0.13549518  0.34432751  0.48810232    -0.79400
O134        O  0.08769875  0.31721852  0.02430894    -0.66900
Ni135      Ni  0.05481426  0.30315612  0.37795587     1.34900
C136        C  0.08762182  0.28623613  0.02049896     0.84200
O137        O  0.13467990  0.32185692  0.38452144    -0.79900
O138        O  0.09035395  0.32517447  0.35465938    -0.90200
C139        C  0.15438966  0.36030656  0.46707317     0.83700
O140        O  0.03982042  0.34542608  0.39274397    -0.68400
O141        O  0.04242057  0.36477768  0.00204244    -0.87700
C142        C  0.05566207  0.37369479  0.39034552     0.84600
C143        C  0.11900014  0.31374831  0.35892817     1.06100
H144        H  0.06412825  0.35923001  0.44846006     0.37900
O145        O  0.07849055  0.34126844  0.45658991    -1.10300
O146        O  0.07937714  0.27559828  0.49095827    -0.67000
Ni147      Ni  0.05280891  0.30204789  0.45490679     1.26300
O148        O  0.08681082  0.37268869  0.39642396    -0.67200
O149        O  0.02187409  0.31457556  0.48767144    -0.79500
C150        C  0.01863004  0.25434810  0.41858802     0.83900
O151        O  0.02933338  0.26065545  0.44692022    -0.66700
Ni152      Ni  0.09058730  0.35657997  0.99575627     1.27400
Ni153      Ni  0.10971564  0.33379805  0.42262288     1.26100
H154        H  0.09131626  0.27530230  0.41986399     0.38500
C155        C  0.26111754  0.10660834  0.06809961     0.85900
C156        C  0.28177954  0.07467864  0.07374897    -0.54300
C157        C  0.26878083  0.05056032  0.09566548     0.08800
C158        C  0.23789425  0.06439921  0.11396803     0.19800
C159        C  0.22651566  0.09290045  0.06115886    -0.55000
C160        C  0.21490267  0.06952387  0.08500801     0.08900
C161        C  0.25901898  0.12110097  0.10013841    -0.54600
C162        C  0.24366416  0.10198982  0.12389356     0.09500
H163        H  0.30085080  0.06891510  0.05683835     0.14000
H164        H  0.23022858  0.04649584  0.13465225    -0.00200
H165        H  0.21366390  0.09971498  0.03857822     0.14300
H166        H  0.26463554  0.14762784  0.10206265     0.14100
C167        C  0.04946915  0.08861412  0.25870437     0.85900
C168        C  0.08381487  0.07454447  0.26945345    -0.54300
C169        C  0.10660982  0.07532947  0.24458928     0.08800
C170        C  0.09225935  0.08747827  0.21158541     0.19800
C171        C  0.05932989  0.12452988  0.24083194    -0.55000
C172        C  0.08348422  0.12320052  0.21646561     0.08900
C173        C  0.03942944  0.06748478  0.23246506    -0.54600
C174        C  0.06091717  0.06715640  0.20850836     0.09500
H175        H  0.09000460  0.06681021  0.29458304     0.14000
H176        H  0.10738162  0.08699933  0.18972401    -0.00200
H177        H  0.05226387  0.14788376  0.25028041     0.14300
H178        H  0.01550433  0.05538322  0.23104119     0.14100
C179        C  0.07051620  0.25378230  0.10917692     0.85900
C180        C  0.06701693  0.27357453  0.07623061    -0.54300
C181        C  0.08971463  0.26499414  0.05359037     0.08800
C182        C  0.11481971  0.23609894  0.06942526     0.19800
C183        C  0.06780466  0.21643536  0.10002999    -0.55000
C184        C  0.09083518  0.20850674  0.07803880     0.08900
C185        C  0.10594451  0.26253658  0.11742363    -0.54600
C186        C  0.12773288  0.24219274  0.10547604     0.09500
H187        H  0.04858133  0.29300241  0.07108131     0.14000
H188        H  0.13470191  0.22935026  0.05294729    -0.00200
H189        H  0.04896055  0.19848692  0.10859280     0.14300
H190        H  0.11132765  0.27379766  0.13987542     0.14100
O191        O  0.13887265  0.22634777  0.25168813    -0.81500
O192        O  0.19660453  0.13391997  0.14588296    -0.66200
O193        O  0.16889338  0.19285496  0.20928693    -1.12800
C194        C  0.25531266  0.26241429  0.16989719     1.05400
O195        O  0.24806626  0.14125481  0.16322216    -0.79400
O196        O  0.27826517  0.18502529  0.19855564    -0.66900
Ni197      Ni  0.13115070  0.21964833  0.20649543     1.34900
C198        C  0.26542226  0.17870840  0.22637548     0.84200
O199        O  0.13422613  0.14251446  0.18591605    -0.79900
O200        O  0.10648136  0.17867888  0.21656435    -0.90200
C201        C  0.22745629  0.12473828  0.14729633     0.83700
O202        O  0.12059827  0.21679818  0.16128098    -0.68400
O203        O  0.26413319  0.23981466  0.15113852    -0.87700
C204        C  0.13748291  0.21614993  0.13530864     0.84600
C205        C  0.10934996  0.14997817  0.20499578     1.06100
H206        H  0.20754502  0.21622056  0.15212266     0.37900
O207        O  0.21365438  0.19911149  0.16911313    -1.10300
O208        O  0.23531036  0.18750122  0.23159307    -0.67000
Ni209      Ni  0.20615437  0.22093373  0.20712221     1.26300
O210        O  0.16028594  0.19443818  0.13567247    -0.67200
O211        O  0.24197137  0.25349427  0.19791459    -0.79500
C212        C  0.16501679  0.23747559  0.26454917     0.83900
O213        O  0.19315236  0.23960570  0.24895608    -0.66700
Ni214      Ni  0.25663472  0.18997170  0.15704968     1.27400
Ni215      Ni  0.17768558  0.16666601  0.17491327     1.26100
H216        H  0.16935329  0.17831763  0.22939600     0.38500
C217        C  0.23284400  0.48749334  0.26522173     0.44900
H218        H  0.25032164  0.50251958  0.24927752    -0.04100
C219        C  0.19065367  0.45317525  0.30181391     0.44900
H220        H  0.17252224  0.43840524  0.31754575    -0.04100
C221        C  0.24793764  0.46911519  0.29617706    -0.17800
C222        C  0.20572625  0.50903274  0.27814589    -0.17600
C223        C  0.21482199  0.45983037  0.24842688    -0.18000
C224        C  0.22487670  0.45133750  0.31526258    -0.17900
C225        C  0.18296975  0.49036136  0.29654382    -0.17500
C226        C  0.19366662  0.44115620  0.26879036    -0.17800
C227        C  0.44006568  0.00283995  0.15484428     0.85900
C228        C  0.43721960  0.02804498  0.18069576    -0.54300
C229        C  0.41687345  0.01645399  0.20608338     0.08800
C230        C  0.40175203  0.48087961  0.20035571     0.19800
C231        C  0.45255469  0.46900578  0.17484661    -0.55000
C232        C  0.43113860  0.45838023  0.19892114     0.08900
C233        C  0.40505451  0.99818946  0.14371076    -0.54600
C234        C  0.38724896  0.48013954  0.16501676     0.09500
H235        H  0.45301285  0.04998149  0.18123421     0.14000
H236        H  0.38391604  0.47312300  0.21988943    -0.00200
H237        H  0.47563312  0.45668590  0.17176258     0.14300
H238        H  0.39869101  0.00075254  0.11792818     0.14100
C239        C  0.25701518  0.35572024  0.17994272     0.85900
C240        C  0.24079456  0.32165920  0.17759885    -0.54300
C241        C  0.25885302  0.30077770  0.15941702     0.08800
C242        C  0.29082889  0.32046454  0.14322917     0.19800
C243        C  0.29216253  0.34501165  0.19286146    -0.55000
C244        C  0.30894545  0.32440653  0.17428745     0.08900
C245        C  0.25782036  0.36930858  0.14473951    -0.54600
C246        C  0.28356482  0.35931199  0.12875455     0.09500
H247        H  0.22048576  0.31280271  0.19307720     0.14000
H248        H  0.30316226  0.30593487  0.12535482    -0.00200
H249        H  0.30028577  0.34976253  0.21694919     0.14300
H250        H  0.24450988  0.39232974  0.13670750     0.14100
C251        C  0.42831876  0.32350835  0.00733816     0.85900
C252        C  0.45791529  0.33385238  0.48819282    -0.54300
C253        C  0.48114422  0.35352390  0.00345209     0.08800
C254        C  0.46592664  0.36425582  0.03635625     0.19800
C255        C  0.44309739  0.30780704  0.03937683    -0.55000
C256        C  0.46195865  0.32942507  0.05512626     0.08900
C257        C  0.41154809  0.35509079  0.01486277    -0.54600
C258        C  0.42873025  0.37645450  0.03085384     0.09500
H259        H  0.46394600  0.32138121  0.46676660     0.14000
H260        H  0.48162406  0.38217286  0.04840131    -0.00200
H261        H  0.43899928  0.28201330  0.04897353     0.14300
H262        H  0.38471174  0.35865936  0.51047931     0.14100
O263        O  0.27081537  0.98970084  0.11041453    -0.81500
O264        O  0.39380036  0.39741345  0.07327750    -0.66200
O265        O  0.33340044  0.46827231  0.09122595    -1.12800
C266        C  0.26906157  0.42269897  0.50902551     1.05400
O267        O  0.38808851  0.41835762  0.02208967    -0.79400
O268        O  0.34097191  0.44945882  0.48523803    -0.66900
Ni269      Ni  0.30856268  0.46385689  0.13128743     1.34900
C270        C  0.33981323  0.48060970  0.48880088     0.84200
O271        O  0.38658092  0.43941914  0.12448490    -0.79900
O272        O  0.34331483  0.44118216  0.15533080    -0.90200
C273        C  0.40503232  0.40110269  0.04396684     0.83700
O274        O  0.29089442  0.42076817  0.12008161    -0.68400
O275        O  0.29318053  0.40223927  0.50450638    -0.87700
C276        C  0.30526080  0.39182534  0.11923222     0.84600
C277        C  0.37258705  0.45013261  0.14958340     1.06100
H278        H  0.31466701  0.40690307  0.05981018     0.37900
O279        O  0.32992732  0.42421640  0.05193828    -1.10300
O280        O  0.33264386  0.49127965  0.01710952    -0.67000
Ni281      Ni  0.30601042  0.46462235  0.05338387     1.26300
O282        O  0.33607617  0.39173141  0.11205768    -0.67200
O283        O  0.27468683  0.45268795  0.02037516    -0.79500
C284        C  0.27437535  0.01390391  0.08824245     0.83900
O285        O  0.28403464  0.00706925  0.05981621    -0.66700
Ni286      Ni  0.34151831  0.40952624  0.01285446     1.27400
Ni287      Ni  0.36089384  0.42965241  0.08656709     1.26100
H288        H  0.34607164  0.48889693  0.08899009     0.38500
C289        C  0.26783686  0.40876846  0.20476599    -0.26900
C290        C  0.24391337  0.38475628  0.19700618    -0.15000
C291        C  0.21101405  0.39623542  0.19314885     0.35700
C292        C  0.20291291  0.42825201  0.20178122    -0.26300
C293        C  0.22598367  0.44669739  0.21831031    -0.15600
C294        C  0.25925201  0.43916358  0.21572935     0.36700
N295        N  0.28444882  0.46090014  0.22611111    -0.89800
H296        H  0.29389116  0.40470271  0.20210561     0.17900
H297        H  0.17722086  0.43537720  0.20180781     0.17900
N298        N  0.18523679  0.37586382  0.18175751    -0.88900
H299        H  0.30006913  0.46738263  0.20646963     0.35200
H300        H  0.29815867  0.44745718  0.24442848     0.40300
H301        H  0.18278164  0.35425308  0.19796362     0.39900
H302        H  0.19121215  0.36900532  0.15878486     0.34800
C303        C  0.19490904  0.04840515  0.23527071    -0.26900
C304        C  0.20145198  0.54455831  0.26644973    -0.15000
C305        C  0.18683937  0.56571879  0.28726847     0.35700
C306        C  0.15610245  0.07781487  0.27987833    -0.26300
C307        C  0.14260471  0.07184532  0.24958823    -0.15600
C308        C  0.16384766  0.06002585  0.22584267     0.36700
N309        N  0.15295798  0.05430825  0.19397851    -0.89800
H310        H  0.20897586  0.03520511  0.21825290     0.17900
H311        H  0.14205140  0.09029414  0.29736490     0.17900
N312        N  0.20007417  0.56796930  0.31906317    -0.88900
H313        H  0.15548440  0.02866654  0.19108735     0.35200
H314        H  0.16831745  0.06788853  0.17722681     0.40300
H315        H  0.18229344  0.55948490  0.33611678     0.39900
H316        H  0.20463113  0.59341122  0.32160579     0.34800
C317        C  0.14322585  0.49418754  0.33906345    -0.26900
C318        C  0.14977187  0.49978701  0.30574350    -0.15000
C319        C  0.12452730  0.49460652  0.28345999     0.35700
C320        C  0.09494430  0.48045904  0.29467235    -0.26300
C321        C  0.09194625  0.46670760  0.32702598    -0.15600
C322        C  0.11554303  0.47544370  0.34989065     0.36700
N323        N  0.11345997  0.46270593  0.38338297    -0.89800
H324        H  0.16265645  0.49787435  0.35633819     0.17900
H325        H  0.07600559  0.47661486  0.27699414     0.17900
N326        N  0.13086365  0.49745982  0.24930651    -0.88900
H327        H  0.11370930  0.48324724  0.39730889     0.35200
H328        H  0.13439475  0.44823782  0.38937137     0.40300
H329        H  0.11173543  0.51122889  0.23762509     0.39900
H330        H  0.12987120  0.47345019  0.24126408     0.34800
C331        C  0.15262981  0.35796930  0.28394809    -0.26900
C332        C  0.18007192  0.33690809  0.28883659    -0.15000
C333        C  0.21148223  0.34895918  0.27914086     0.35700
C334        C  0.21531837  0.38325813  0.27033251    -0.26300
C335        C  0.18807884  0.40486089  0.26813413    -0.15600
C336        C  0.15651168  0.39186769  0.27363857     0.36700
N337        N  0.12873768  0.41375128  0.27212407    -0.89800
H338        H  0.12831997  0.34918853  0.29114493     0.17900
H339        H  0.23992463  0.39332300  0.26714805     0.17900
N340        N  0.23978879  0.32756092  0.27846421    -0.88900
H341        H  0.11747214  0.41108133  0.29487165     0.35200
H342        H  0.11232064  0.40576086  0.25499987     0.40300
H343        H  0.23341014  0.30207763  0.28177736     0.39900
H344        H  0.25555428  0.33291416  0.29728579     0.34800
C345        C  0.22042381  0.40578061  0.39847820    -0.26900
C346        C  0.22101589  0.43324271  0.41726752    -0.15000
C347        C  0.22782827  0.46600616  0.40256797     0.35700
C348        C  0.22820545  0.47121327  0.36908726    -0.26300
C349        C  0.22720579  0.44395082  0.35034624    -0.15600
C350        C  0.22431988  0.41086920  0.36491564     0.36700
N351        N  0.22388927  0.38296381  0.34546878    -0.89800
H352        H  0.21518855  0.38062377  0.40959189     0.17900
H353        H  0.23002502  0.49673010  0.35755389     0.17900
N354        N  0.23550966  0.49411503  0.42059053    -0.88900
H355        H  0.22092223  0.36030980  0.36010833     0.35200
H356        H  0.24701538  0.38191111  0.33471279     0.40300
H357        H  0.23932499  0.48667512  0.44518785     0.39900
H358        H  0.21683195  0.01086241  0.41968711     0.34800
C359        C  0.34512066  0.27968128  0.50346278    -0.26900
C360        C  0.33640031  0.29123907  0.47195282    -0.15000
C361        C  0.35624843  0.31520610  0.45437805     0.35700
C362        C  0.38904700  0.31788565  0.46340092    -0.26300
C363        C  0.40010549  0.30347033  0.49416282    -0.15600
C364        C  0.37663181  0.28789666  0.01359379     0.36700
N365        N  0.38232965  0.27816936  0.04734303    -0.89800
H366        H  0.32916244  0.26578506  0.01692172     0.17900
H367        H  0.40453889  0.33536953  0.44863706     0.17900
N368        N  0.34358116  0.33606633  0.42703678    -0.88900
H369        H  0.37833317  0.25220825  0.05183235     0.35200
H370        H  0.36539580  0.29061992  0.06089764     0.40300
H371        H  0.33226913  0.32097595  0.41098638     0.39900
H372        H  0.32513855  0.35109356  0.43560063     0.34800
C373        C  0.26626734  0.18787849  0.01285848    -0.26900
C374        C  0.29565961  0.18914622  0.50658739    -0.15000
C375        C  0.31726032  0.16621200  0.52325418     0.35700
C376        C  0.30821721  0.13843320  0.04113936    -0.26300
C377        C  0.27387694  0.13401105  0.04398399    -0.15600
C378        C  0.25296031  0.16088821  0.03202389     0.36700
N379        N  0.21842253  0.16112933  0.03948944    -0.89800
H380        H  0.24976988  0.20671419  0.00162426     0.17900
H381        H  0.32508871  0.12088877  0.05393446     0.17900
N382        N  0.35219310  0.17092881  0.52242283    -0.88900
H383        H  0.20664145  0.18188966  0.02717551     0.35200
H384        H  0.21603030  0.16392448  0.06421090     0.40300
H385        H  0.35739527  0.19454441  0.53023321     0.39900
H386        H  0.36067240  0.17078381  0.49869380     0.34800
C387        C  0.20840900  0.28099343  0.40070781    -0.26900
C388        C  0.19977416  0.25237387  0.38438965    -0.15000
C389        C  0.19636824  0.22156493  0.40411828     0.35700
C390        C  0.21172452  0.21833046  0.43481686    -0.26300
C391        C  0.23166995  0.24496485  0.44355750    -0.15600
C392        C  0.22370761  0.27726420  0.43076998     0.36700
N393        N  0.23636794  0.30589951  0.44515759    -0.89800
H394        H  0.20368081  0.30647302  0.39041198     0.17900
H395        H  0.21385549  0.19356950  0.44794105     0.17900
N396        N  0.17849909  0.19392542  0.39287931    -0.88900
H397        H  0.25186742  0.31927570  0.42837325     0.35200
H398        H  0.21651373  0.32142309  0.44941193     0.40300
H399        H  0.15950488  0.18764285  0.40931910     0.39900
H400        H  0.19410144  0.17314113  0.39323625     0.34800
C401        C  0.29535361  0.52116876  0.34491125    -0.26900
C402        C  0.30243962  0.49603194  0.37053320    -0.15000
C403        C  0.30465795  0.46232527  0.36270666     0.35700
C404        C  0.29478001  0.45438577  0.33190201    -0.26300
C405        C  0.27923242  0.47894119  0.31054691    -0.15600
C406        C  0.28365308  0.51303458  0.31512319     0.36700
N407        N  0.27432822  0.53927949  0.29058119    -0.89800
H408        H  0.30486297  0.04560160  0.34577840     0.17900
H409        H  0.29338184  0.42809940  0.32730663     0.17900
N410        N  0.31679326  0.43625809  0.38587186    -0.88900
H411        H  0.27730356  0.56311303  0.29878946     0.35200
H412        H  0.29045997  0.53822988  0.27111154     0.40300
H413        H  0.29851006  0.41785106  0.38979573     0.39900
H414        H  0.33709816  0.42521495  0.37572601     0.34800
C415        C  0.35212337  0.11480189  0.42281600    -0.26900
C416        C  0.32872463  0.09142136  0.43472712    -0.15000
C417        C  0.30229733  0.10142400  0.45325741     0.35700
C418        C  0.29957396  0.13548675  0.45869458    -0.26300
C419        C  0.32361381  0.15932398  0.44737109    -0.15600
C420        C  0.34982689  0.14842409  0.42890360     0.36700
N421        N  0.37461437  0.17124384  0.41626015    -0.89800
H422        H  0.37239482  0.10700899  0.40847816     0.17900
H423        H  0.27775335  0.14335280  0.47048604     0.17900
N424        N  0.27879750  0.07703910  0.46687442    -0.88900
H425        H  0.37481793  0.17114992  0.39100561     0.35200
H426        H  0.39692436  0.16131217  0.42495940     0.40300
H427        H  0.26550242  0.06824424  0.44776680     0.39900
H428        H  0.26180853  0.08839033  0.48126334     0.34800
C429        C  0.26071274  0.17955601  0.39420077    -0.26900
C430        C  0.26660074  0.21435715  0.38976392    -0.15000
C431        C  0.26960907  0.23151655  0.35889805     0.35700
C432        C  0.27042109  0.21254785  0.33274738    -0.26300
C433        C  0.27127204  0.17726347  0.33821530    -0.15600
C434        C  0.26427702  0.16033397  0.36837940     0.36700
N435        N  0.26315761  0.12412225  0.37287047    -0.89800
H436        H  0.25736687  0.16719290  0.41832801     0.17900
H437        H  0.27472061  0.22503180  0.30869267     0.17900
N438        N  0.27488696  0.26738488  0.35471601    -0.88900
H439        H  0.25733212  0.11589080  0.39692255     0.35200
H440        H  0.28676304  0.11520954  0.36874321     0.40300
H441        H  0.27635183  0.27584971  0.33005130     0.39900
H442        H  0.29772363  0.27246595  0.36479891     0.34800
C443        C  0.41573119  0.24077361  0.39212682    -0.26900
C444        C  0.43049202  0.22102306  0.41815718    -0.15000
C445        C  0.41912393  0.22429041  0.45000659     0.35700
C446        C  0.38780311  0.23639869  0.45360074    -0.26300
C447        C  0.37064808  0.25198045  0.42694372    -0.15600
C448        C  0.38671592  0.25840663  0.39709251     0.36700
N449        N  0.37332275  0.28204131  0.37220113    -0.89800
H450        H  0.42562522  0.24136994  0.36787491     0.17900
H451        H  0.37640375  0.23206223  0.47714016     0.17900
N452        N  0.43839444  0.21630294  0.47885393    -0.88900
H453        H  0.37433734  0.30569808  0.38093328     0.35200
H454        H  0.38897965  0.28429806  0.35215514     0.40300
H455        H  0.46327565  0.21392662  0.47361499     0.39900
H456        H  0.42944828  0.19404804  0.49121003     0.34800
C457        C  0.46516164  0.34779820  0.10936523    -0.26900
C458        C  0.47087606  0.32208943  0.08934112    -0.15000
C459        C  0.47747050  0.28895938  0.10337461     0.35700
C460        C  0.47417230  0.28187599  0.13673567    -0.26300
C461        C  0.46774252  0.30755752  0.15656351    -0.15600
C462        C  0.46354001  0.34076569  0.14276711     0.36700
N463        N  0.45652875  0.36733583  0.16242134    -0.89800
H464        H  0.45945236  0.37317320  0.09923047     0.17900
H465        H  0.47674223  0.25609872  0.14726699     0.17900
N466        N  0.48824001  0.26227778  0.08493577    -0.88900
H467        H  0.43417275  0.37833693  0.15479527     0.35200
H468        H  0.47500701  0.38551372  0.15863992     0.40300
H469        H  0.49365956  0.27104942  0.06095926     0.39900
H470        H  0.46950835  0.24427114  0.08503277     0.34800
C471        C  0.36311661  0.26969209  0.23219758    -0.26900
C472        C  0.38667594  0.25980090  0.21055363    -0.15000
C473        C  0.37900346  0.26227423  0.17720363     0.35700
C474        C  0.35338708  0.28333509  0.16581333    -0.26300
C475        C  0.33295856  0.29853200  0.18748410    -0.15600
C476        C  0.33525574  0.28733530  0.22090063     0.36700
N477        N  0.31032801  0.29447897  0.24360946    -0.89800
H478        H  0.36837455  0.26876007  0.25775847     0.17900
H479        H  0.35135566  0.28934538  0.13988244     0.17900
N480        N  0.39977706  0.24813740  0.15404520    -0.88900
H481        H  0.30153928  0.27159657  0.25482984     0.35200
H482        H  0.32107096  0.30773347  0.26153850     0.40300
H483        H  0.41951242  0.23532839  0.16568374     0.39900
H484        H  0.40944701  0.26798493  0.13861211     0.34800
C485        C  0.46494996  0.37601050  0.23030957    -0.26900
C486        C  0.43592102  0.35700174  0.23367092    -0.15000
C487        C  0.40530747  0.37256483  0.23076992     0.35700
C488        C  0.40403064  0.40700107  0.22242285    -0.26300
C489        C  0.43317469  0.42579005  0.21770216    -0.15600
C490        C  0.46376548  0.41075292  0.22484050     0.36700
N491        N  0.49335895  0.43052305  0.22499906    -0.89800
H492        H  0.48856397  0.36364828  0.23076572     0.17900
H493        H  0.38018475  0.41811303  0.21709946     0.17900
N494        N  0.37566670  0.35323785  0.23450049    -0.88900
H495        H  0.01382788  0.41695366  0.23251600     0.35200
H496        H  0.49127756  0.44623242  0.24370541     0.40300
H497        H  0.36173030  0.36262006  0.25278699     0.39900
H498        H  0.36243346  0.35726048  0.21281204     0.34800
C499        C  0.46764359  0.37541900  0.30639532    -0.26900
C500        C  0.00197066  0.38305731  0.30191244    -0.15000
C501        C  0.02286595  0.35710052  0.29117522     0.35700
C502        C  0.00953228  0.32691806  0.28274684    -0.26300
C503        C  0.47419898  0.32119077  0.28512637    -0.15600
C504        C  0.45478678  0.34382513  0.30089106     0.36700
N505        N  0.42118174  0.33591240  0.30852239    -0.89800
H506        H  0.45187529  0.39293796  0.31742337     0.17900
H507        H  0.02513209  0.30986459  0.27085973     0.17900
N508        N  0.05759912  0.36011579  0.28693440    -0.88900
H509        H  0.40639014  0.35500939  0.29728633     0.35200
H510        H  0.41839305  0.33648901  0.33355402     0.40300
H511        H  0.06909086  0.36481404  0.30857082     0.39900
H512        H  0.06263111  0.37828816  0.26775813     0.34800
C513        C  0.03567438  0.30044117  0.17821121    -0.26900
C514        C  0.51940794  0.27481538  0.19843510    -0.15000
C515        C  0.52530274  0.24166250  0.19189515     0.35700
C516        C  0.04110408  0.23476083  0.16207488    -0.26300
C517        C  0.05031486  0.26142879  0.13862535    -0.15600
C518        C  0.04897747  0.29464733  0.14801828     0.36700
N519        N  0.06026984  0.32265482  0.12659734    -0.89800
H520        H  0.03223939  0.32627540  0.18365791     0.17900
H521        H  0.04559078  0.20872255  0.15851914     0.17900
N522        N  0.51204290  0.21418878  0.21265658    -0.88900
H523        H  0.04057147  0.33917899  0.12175083     0.35200
H524        H  0.07843929  0.33526333  0.13865007     0.40300
H525        H  0.49644782  0.20035842  0.19879872     0.39900
H526        H  0.53155862  0.19864595  0.22080672     0.34800
C527        C  0.41481449  0.23273923  0.29185365    -0.26900
C528        C  0.42861602  0.22336254  0.26287932    -0.15000
C529        C  0.41552534  0.19572001  0.24875914     0.35700
C530        C  0.38427952  0.18431413  0.25790459    -0.26300
C531        C  0.36703794  0.19909014  0.28224432    -0.15600
C532        C  0.38355731  0.22075863  0.30142275     0.36700
N533        N  0.36725041  0.23405049  0.32782340    -0.89800
H534        H  0.42519959  0.25358848  0.30346279     0.17900
H535        H  0.37255526  0.16593789  0.24405671     0.17900
N536        N  0.43150225  0.18310345  0.22165131    -0.88900
H537        H  0.36031827  0.21397333  0.34452784     0.35200
H538        H  0.34598125  0.24652003  0.31904717     0.40300
H539        H  0.41538771  0.18559175  0.20186414     0.39900
H540        H  0.43567196  0.15736301  0.22750366     0.34800
C541        C  0.09295749  0.13564755  0.02642119    -0.26900
C542        C  0.09523748  0.10955644  0.05166599    -0.15000
C543        C  0.10996717  0.11781791  0.08092775     0.35700
C544        C  0.10707477  0.15031061  0.08950010    -0.26300
C545        C  0.09545494  0.17544342  0.06697962    -0.15600
C546        C  0.09229898  0.16909205  0.03407781     0.36700
N547        N  0.08521072  0.19527552  0.00891267    -0.89800
H548        H  0.08760379  0.13034903  0.00181787     0.17900
H549        H  0.11452725  0.15589534  0.11352800     0.17900
N550        N  0.13020851  0.09471030  0.10050582    -0.88900
H551        H  0.10483973  0.21225914  0.00730100     0.35200
H552        H  0.06402525  0.20784836  0.01525545     0.40300
H553        H  0.12187897  0.09344132  0.12448787     0.39900
H554        H  0.15390758  0.10489639  0.10040632     0.34800
C555        C  0.03233463  0.08441286  0.15966689    -0.26900
C556        C  0.04833647  0.05871617  0.17843082    -0.15000
C557        C  0.04685290  0.02536315  0.17092288     0.35700
C558        C  0.03507270  0.01930954  0.14053353    -0.26300
C559        C  0.02488688  0.04660519  0.11895708    -0.15600
C560        C  0.01976380  0.07829466  0.12999876     0.36700
N561        N  0.00433868  0.10503967  0.11030203    -0.89800
H562        H  0.03050162  0.10948675  0.16767481     0.17900
H563        H  0.03800085  0.99450226  0.13226882     0.17900
N564        N  0.05824938  0.99836595  0.19349589    -0.88900
H565        H  0.48468252  0.11062145  0.12361998     0.35200
H566        H  0.02033884  0.12572494  0.10880001     0.40300
H567        H  0.07687557  0.98556754  0.18253338     0.39900
H568        H  0.03873332  0.98156219  0.19834536     0.34800
C569        C  0.14251269  0.03121502  0.04715522    -0.26900
C570        C  0.12421093  0.02028738  0.07482948    -0.15000
C571        C  0.13930604  0.01751103  0.10549159     0.35700
C572        C  0.17022262  0.03188173  0.10846294    -0.26300
C573        C  0.18673398  0.04697838  0.08091007    -0.15600
C574        C  0.17476261  0.04166440  0.04984694     0.36700
N575        N  0.19484859  0.04738644  0.02131324    -0.89800
H576        H  0.13112458  0.03382629  0.02344989     0.17900
H577        H  0.17957615  0.03340726  0.13265733     0.17900
N578        N  0.12269934  0.00331589  0.13415701    -0.88900
H579        H  0.18186305  0.04184779  0.00063281     0.35200
H580        H  0.21439139  0.03036429  0.02399311     0.40300
H581        H  0.10110558  0.99115481  0.12810596     0.39900
H582        H  0.11607672  0.02322978  0.14744180     0.34800
C583        C  0.45306360  0.04140906  0.10594288    -0.26900
C584        C  0.45852709  0.00964464  0.12329953    -0.15000
C585        C  0.47024713  0.48064847  0.10340754     0.35700
C586        C  0.98319820  0.99118027  0.07271771    -0.26300
C587        C  0.98655999  0.02479370  0.06180099    -0.15600
C588        C  0.96503070  0.04777625  0.07400395     0.36700
N589        N  0.95818938  0.07971087  0.05642190    -0.89800
H590        H  0.43922683  0.06068609  0.11666519     0.17900
H591        H  0.99621575  0.47050435  0.06186037     0.17900
N592        N  0.46890018  0.44532428  0.11366734    -0.88900
H593        H  0.96799536  0.08013765  0.03306512     0.35200
H594        H  0.93273434  0.08140712  0.05337891     0.40300
H595        H  0.44635800  0.43820435  0.12396693     0.39900
H596        H  0.48913869  0.43808337  0.12818156     0.34800
C597        C  0.02887543  0.07870617  0.47435639    -0.26900
C598        C  0.03706839  0.08935921  0.00436520    -0.15000
C599        C  0.02326387  0.11928768  0.01434535     0.35700
C600        C  0.01263144  0.14276933  0.49031189    -0.26300
C601        C  0.00789538  0.13377916  0.45911806    -0.15600
C602        C  0.00983469  0.09957554  0.45344207     0.36700
N603        N  0.99229799  0.08632363  0.42718270    -0.89800
H604        H  0.03370129  0.05375907  0.46783899     0.17900
H605        H  0.00163447  0.16660506  0.99776887     0.17900
N606        N  0.02249631  0.12642730  0.04741059    -0.88900
H607        H  0.99623134  0.06040911  0.42716219     0.35200
H608        H  0.96721320  0.08951688  0.43124226     0.40300
H609        H  0.03304661  0.15003248  0.04919585     0.39900
H610        H  0.99781041  0.12958905  0.05312333     0.34800
C611        C  0.10478179  0.45570009  0.04921246    -0.26900
C612        C  0.08770437  0.98051421  0.03094758    -0.15000
C613        C  0.09721485  0.98578144  0.99826057     0.35700
C614        C  0.12795014  0.47416392  0.48856085    -0.26300
C615        C  0.15047842  0.45906741  0.01127061    -0.15600
C616        C  0.13743553  0.44885537  0.04263945     0.36700
N617        N  0.15642142  0.43150582  0.06825673    -0.89800
H618        H  0.09581153  0.44882688  0.07362824     0.17900
H619        H  0.13320244  0.47775889  0.46300909     0.17900
N620        N  0.07898927  0.00460073  0.47322293    -0.88900
H621        H  0.17607796  0.44687681  0.07374905     0.35200
H622        H  0.16516767  0.40873402  0.06123640     0.40300
H623        H  0.08056567  0.02949217  0.47870007     0.39900
H624        H  0.05473806  0.99614265  0.47223393     0.34800
C625        C  0.04322318  0.03001055  0.53231448     0.44900
H626        H  0.02957150  0.01999407  0.51222735    -0.04100
C627        C  0.07362849  0.05097771  0.58131410     0.44900
H628        H  0.08431917  0.05769409  0.60411425    -0.04100
C629        C  0.05861334  0.06574232  0.52571677    -0.17800
C630        C  0.02079990  0.03484266  0.56031946    -0.17600
C631        C  0.07114757  0.00663838  0.54613592    -0.18000
C632        C  0.07770454  0.07555676  0.55115237    -0.17900
C633        C  0.03719991  0.04526763  0.58604721    -0.17500
C634        C  0.08759745  0.01901093  0.57142961    -0.17800
C635        C  0.47400121  0.27185147  0.74634939     0.44900
H636        H  0.49195634  0.25774110  0.76267332    -0.04100
C637        C  0.43214732  0.30496071  0.70761847     0.44900
H638        H  0.41424049  0.31924453  0.69123473    -0.04100
C639        C  0.48740065  0.28352469  0.71184835    -0.17800
C640        C  0.44239932  0.25205669  0.74034999    -0.17600
C641        C  0.46102345  0.30443299  0.75901595    -0.18000
C642        C  0.46457462  0.30052267  0.69212057    -0.17900
C643        C  0.42120003  0.26969431  0.71919036    -0.17500
C644        C  0.43987112  0.32189407  0.73769285    -0.17800
C645        C  0.99899258  0.16024736  0.93363669     0.85900
C646        C  0.01788427  0.19285735  0.93616956    -0.54300
C647        C  0.00978946  0.21794795  0.91296396     0.08800
C648        C  0.48463488  0.20428314  0.88731812     0.19800
C649        C  0.46391631  0.17051036  0.93366208    -0.55000
C650        C  0.45670803  0.19648328  0.91077865     0.08900
C651        C  0.00894957  0.15102101  0.90060451    -0.54600
C652        C  0.49439348  0.16768615  0.87638921     0.09500
H653        H  0.03460635  0.19655743  0.95602202     0.14000
H654        H  0.47916532  0.22319776  0.86661319    -0.00200
H655        H  0.44758003  0.16178224  0.95335196     0.14300
H656        H  0.02205635  0.12791655  0.89726800     0.14100
C657        C  0.28940900  0.16638252  0.75402176     0.85900
C658        C  0.31321919  0.19574750  0.75834726    -0.54300
C659        C  0.33306877  0.19129618  0.78502303     0.08800
C660        C  0.32424688  0.16038020  0.80752958     0.19800
C661        C  0.31348193  0.13457278  0.75789953    -0.55000
C662        C  0.33236072  0.13243878  0.78693138     0.08900
C663        C  0.26917541  0.16121394  0.78448338    -0.54600
C664        C  0.28678038  0.15983315  0.81184327     0.09500
H665        H  0.31950325  0.21390226  0.73798597     0.14000
H666        H  0.33766658  0.15879434  0.83105589    -0.00200
H667        H  0.31672148  0.11753663  0.73925713     0.14300
H668        H  0.24260688  0.16398850  0.78506284     0.14100
C669        C  0.32238175  0.00647139  0.89889732     0.85900
C670        C  0.32098477  0.48885634  0.93223696    -0.54300
C671        C  0.34089727  0.50262063  0.95492668     0.08800
C672        C  0.36193493  0.03442461  0.93727272     0.19800
C673        C  0.31349938  0.04334581  0.90499818    -0.55000
C674        C  0.33401563  0.05735237  0.92572816     0.08900
C675        C  0.35872892  0.00251477  0.89211842    -0.54600
C676        C  0.37750513  0.02677042  0.90243333     0.09500
H677        H  0.30517350  0.46706018  0.93781148     0.14000
H678        H  0.37953720  0.04594697  0.95353486    -0.00200
H679        H  0.29207048  0.05663916  0.89478975     0.14300
H680        H  0.36852931  0.48941302  0.87269614     0.14100
O681        O  0.39421089  0.03763119  0.75179622    -0.81500
O682        O  0.44744675  0.13313785  0.85602275    -0.66200
O683        O  0.42252383  0.07096403  0.79466633    -1.12800
C684        C  0.00733079  0.00274365  0.83755115     1.05400
O685        O  0.49967102  0.12235048  0.84329649    -0.79400
O686        O  0.03129392  0.07745704  0.81234437    -0.66900
Ni687      Ni  0.38743534  0.04105816  0.79719538     1.34900
C688        C  0.02158783  0.08426817  0.78339778     0.84200
O689        O  0.38615434  0.12104348  0.81480898    -0.79900
O690        O  0.35957640  0.07982748  0.78892356    -0.90200
C691        C  0.47857581  0.14150370  0.85558437     0.83700
O692        O  0.38040890  0.03862133  0.84350744    -0.68400
O693        O  0.01318886  0.02466617  0.85819962    -0.87700
C694        C  0.38955864  0.04904357  0.87049510     0.84600
C695        C  0.36147023  0.10994317  0.79737305     1.06100
H696        H  0.45600648  0.04850863  0.85396949     0.37900
O697        O  0.46412814  0.06512119  0.83740380    -1.10300
O698        O  0.49101592  0.07691650  0.77617532    -0.67000
Ni699      Ni  0.45966736  0.04353366  0.79867621     1.26300
O700        O  0.40816612  0.07497170  0.86909396    -0.67200
O701        O  0.49555955  0.51289686  0.80963754    -0.79500
C702        C  0.42073656  0.02706751  0.73961133     0.83900
O703        O  0.44854195  0.02510633  0.75604101    -0.66700
Ni704      Ni  0.00650873  0.07484616  0.85156879     1.27400
Ni705      Ni  0.42904591  0.09818384  0.82880797     1.26100
H706        H  0.42305612  0.08502079  0.77426998     0.38500
C707        C  0.32090270  0.22038744  0.91967309     0.44900
H708        H  0.33167846  0.21046991  0.89786341    -0.04100
C709        C  0.29373536  0.24496635  0.96874846     0.44900
H710        H  0.28175562  0.25568366  0.98953359    -0.04100
C711        C  0.32289582  0.19640029  0.95055505    -0.17800
C712        C  0.33633280  0.25319183  0.92755756    -0.17600
C713        C  0.28463491  0.22679006  0.91610824    -0.18000
C714        C  0.30981323  0.21018896  0.97709491    -0.17900
C715        C  0.32062380  0.26745714  0.95227220    -0.17500
C716        C  0.26978162  0.23816365  0.94231086    -0.17800
C717        C  0.17768294  0.43833268  0.49878940     0.85900
C718        C  0.21002388  0.43348435  0.51713767    -0.54300
C719        C  0.23259081  0.41360164  0.50314297     0.08800
C720        C  0.21734550  0.39697789  0.97380594     0.19800
C721        C  0.18944606  0.45015834  0.96327885    -0.55000
C722        C  0.21008441  0.42794677  0.95079538     0.08900
C723        C  0.16365380  0.40376451  0.49818478    -0.54600
C724        C  0.18129602  0.38265828  0.98254307     0.09500
H725        H  0.21651232  0.44939400  0.53602890     0.14000
H726        H  0.23405295  0.37845179  0.96413090    -0.00200
H727        H  0.18314367  0.47372646  0.94956671     0.14300
H728        H  0.13819588  0.39897095  0.50575980     0.14100
C729        C  0.18430936  0.25806516  0.85385036     0.85900
C730        C  0.18255146  0.23423965  0.82677219    -0.54300
C731        C  0.16345535  0.24724590  0.80082415     0.08800
C732        C  0.14714277  0.28250235  0.80692189     0.19800
C733        C  0.19715270  0.29130802  0.83481938    -0.55000
C734        C  0.17751164  0.30339163  0.80977959     0.08900
C735        C  0.14881988  0.26221894  0.86324339    -0.54600
C736        C  0.13206168  0.28285389  0.84236558     0.09500
H737        H  0.19748227  0.21176224  0.82640750     0.14000
H738        H  0.13010253  0.29191074  0.78714393    -0.00200
H739        H  0.21967119  0.30400546  0.84065169     0.14300
H740        H  0.14117533  0.25823070  0.88860468     0.14100
C741        C  0.01566502  0.40947712  0.82200899     0.85900
C742        C  0.49770506  0.44400789  0.82507400    -0.54300
C743        C  0.01302076  0.46253964  0.84704307     0.08800
C744        C  0.04469909  0.44354586  0.86424907     0.19800
C745        C  0.05049191  0.42280189  0.81245957    -0.55000
C746        C  0.06556932  0.44123203  0.83455030     0.08900
C747        C  0.01554199  0.39298541  0.85611887    -0.54600
C748        C  0.03731526  0.40442288  0.87640409     0.09500
H749        H  0.47787866  0.45256428  0.80871726     0.14000
H750        H  0.05517300  0.45797056  0.88336028     0.02600
H751        H  0.05907347  0.42358246  0.78776902     0.14300
H752        H  0.00299043  0.36890014  0.86136157     0.14100
O753        O  0.01976060  0.27690732  0.89569258    -0.81500
O754        O  0.14625213  0.36419940  0.93756492    -0.66200
O755        O  0.08216949  0.29618071  0.91832378    -1.12800
C756        C  0.01689551  0.34374524  0.49821419     1.05400
O757        O  0.13675455  0.34460689  0.98861904    -0.79400
O758        O  0.08674991  0.31619587  0.52388876    -0.66900
Ni759      Ni  0.05734502  0.30243572  0.87836595     1.34900
C760        C  0.08653501  0.28531602  0.51951773     0.84200
O761        O  0.13703747  0.32159995  0.88535817    -0.79900
O762        O  0.09283829  0.32493579  0.85554388    -0.90200
C763        C  0.15574001  0.36048996  0.96763867     0.83700
O764        O  0.04191134  0.34447921  0.89319253    -0.68400
O765        O  0.04125333  0.36416768  0.50260242    -0.87700
C766        C  0.05753674  0.37286761  0.89048106     0.84600
C767        C  0.12140200  0.31341041  0.85980204     1.06100
H768        H  0.06577340  0.35894973  0.94847857     0.37900
O769        O  0.08012161  0.34111643  0.95681816    -1.10300
O770        O  0.08066509  0.27592017  0.99209064    -0.67000
Ni771      Ni  0.05452395  0.30186019  0.95522933     1.26300
O772        O  0.08867030  0.37216593  0.89664548    -0.67200
O773        O  0.02308755  0.31500939  0.98735633    -0.79500
C774        C  0.02043287  0.25366844  0.91895918     0.83900
O775        O  0.03107032  0.26031152  0.94725313    -0.66700
Ni776      Ni  0.08935721  0.35605895  0.49578507     1.27400
Ni777      Ni  0.11164727  0.33353715  0.92318079     1.26100
H778        H  0.09350565  0.27481194  0.92079567     0.38500
C779        C  0.25775455  0.10577701  0.56802351     0.85900
C780        C  0.27901385  0.07423743  0.57365378    -0.54300
C781        C  0.26707430  0.05024214  0.59631968     0.08800
C782        C  0.23613551  0.06370734  0.61490335     0.19800
C783        C  0.22328909  0.09135511  0.56194166    -0.55000
C784        C  0.21264458  0.06795245  0.58626450     0.08900
C785        C  0.25603354  0.12068678  0.59981946    -0.54600
C786        C  0.24151602  0.10165644  0.62410151     0.09500
H787        H  0.29799527  0.06865429  0.55657864     0.14000
H788        H  0.22871639  0.04594216  0.63582198    -0.00200
H789        H  0.20997569  0.09726926  0.53942536     0.14300
H790        H  0.26134590  0.14736788  0.60129532     0.14100
C791        C  0.04896184  0.09101083  0.75705436     0.85900
C792        C  0.08372921  0.07762534  0.76755496    -0.54300
C793        C  0.10628205  0.07869097  0.74242126     0.08800
C794        C  0.09150564  0.09070260  0.70966794     0.19800
C795        C  0.05822704  0.12718179  0.73922473    -0.55000
C796        C  0.08226350  0.12635328  0.71466129     0.08900
C797        C  0.03921280  0.06971684  0.73083397    -0.54600
C798        C  0.06071108  0.06964823  0.70689191     0.09500
H799        H  0.09029526  0.06992346  0.79259767     0.14000
H800        H  0.10650182  0.09041329  0.68770064    -0.00200
H801        H  0.05150293  0.15023296  0.74938087     0.14300
H802        H  0.01556814  0.05702742  0.72955153     0.14100
C803        C  0.06758416  0.25131598  0.60721112     0.85900
C804        C  0.06402744  0.27055200  0.57400918    -0.54300
C805        C  0.08799935  0.26325466  0.55212215     0.08800
C806        C  0.11426827  0.23579075  0.56879777     0.19800
C807        C  0.06751725  0.21374456  0.59865458    -0.55000
C808        C  0.09165957  0.20686651  0.57729606     0.08900
C809        C  0.10213918  0.26208631  0.61596899    -0.54600
C810        C  0.12577079  0.24323847  0.60488641     0.09500
H811        H  0.04504733  0.28929486  0.56835775     0.14000
H812        H  0.13500648  0.23004661  0.55289254    -0.00200
H813        H  0.04949208  0.19481676  0.60699580     0.14300
H814        H  0.10624560  0.27562722  0.63727797     0.14100
O815        O  0.14069550  0.22288972  0.75500952    -0.81500
O816        O  0.19513705  0.13457525  0.64570396    -0.66200
O817        O  0.16968111  0.19302626  0.71009574    -1.12800
C818        C  0.25548093  0.26201588  0.66962008     1.05400
O819        O  0.24670401  0.14121059  0.66295506    -0.79400
O820        O  0.27845742  0.18494303  0.69721660    -0.66900
Ni821      Ni  0.13426351  0.22211058  0.70916034     1.34900
C822        C  0.26613891  0.17829127  0.72521097     0.84200
O823        O  0.13399421  0.14402421  0.68604906    -0.79900
O824        O  0.10584576  0.18240998  0.71366907    -0.90200
C825        C  0.22576448  0.12472266  0.64739663     0.83700
O826        O  0.12915228  0.22827441  0.66301780    -0.68400
O827        O  0.26354374  0.23959467  0.65035002    -0.87700
C828        C  0.13879839  0.21995378  0.63554120     0.84600
C829        C  0.10858884  0.15292511  0.70348056     1.06100
H830        H  0.20625086  0.21670092  0.65169121     0.37900
O831        O  0.21294144  0.19970043  0.66857562    -1.10300
O832        O  0.23603005  0.18663779  0.73085105    -0.67000
Ni833      Ni  0.20679581  0.22065547  0.70751181     1.26300
O834        O  0.15705949  0.19396337  0.63547013    -0.67200
O835        O  0.24279929  0.25293520  0.69793426    -0.79500
C836        C  0.16674433  0.23526091  0.76693736     0.83900
O837        O  0.19435219  0.23864753  0.75022880    -0.66700
Ni838      Ni  0.25571494  0.18986822  0.65625120     1.27400
Ni839      Ni  0.17691986  0.16760035  0.67468168     1.26100
H840        H  0.17025674  0.17799481  0.72988542     0.38500
C841        C  0.23465665  0.48643851  0.76571743     0.44900
H842        H  0.25153088  0.50164933  0.74931920    -0.04100
C843        C  0.19363820  0.45179410  0.80344253     0.44900
H844        H  0.17597069  0.43682760  0.81956627    -0.04100
C845        C  0.25072316  0.46819252  0.79637015    -0.17800
C846        C  0.20763049  0.50778200  0.77923880    -0.17600
C847        C  0.21621249  0.45854336  0.74943782    -0.18000
C848        C  0.22815771  0.45059451  0.81616523    -0.17900
C849        C  0.18535012  0.48880853  0.79795477    -0.17500
C850        C  0.19598944  0.43963654  0.77048375    -0.17800
C851        C  0.44023197  0.00174581  0.65428031     0.85900
C852        C  0.43746312  0.02695611  0.68018548    -0.54300
C853        C  0.41755213  0.01507994  0.70587331     0.08800
C854        C  0.40106648  0.48177507  0.70046534     0.19800
C855        C  0.45256354  0.47123455  0.67555266    -0.55000
C856        C  0.43108138  0.46000330  0.69941869     0.08900
C857        C  0.40508295  0.99678598  0.64372807    -0.54600
C858        C  0.38703621  0.48053351  0.66492626     0.09500
H859        H  0.45288349  0.04919700  0.68042525     0.14000
H860        H  0.38311829  0.47374521  0.71981136    -0.00200
H861        H  0.47594869  0.45947724  0.67262519     0.14300
H862        H  0.39829094  0.99928871  0.61805442     0.14100
C863        C  0.25601709  0.35545383  0.67939528     0.85900
C864        C  0.24030146  0.32110782  0.67720546    -0.54300
C865        C  0.25884040  0.30036978  0.65929646     0.08800
C866        C  0.29082858  0.32028708  0.64349076     0.19800
C867        C  0.29109992  0.34531523  0.69285996    -0.55000
C868        C  0.30845280  0.32474636  0.67478038     0.08900
C869        C  0.25704592  0.36870717  0.64406967    -0.54600
C870        C  0.28330670  0.35894809  0.62864280     0.09500
H871        H  0.21991653  0.31201780  0.69245863     0.14000
H872        H  0.30345621  0.30577435  0.62581085    -0.00200
H873        H  0.29912826  0.35123528  0.71663441     0.14300
H874        H  0.24362492  0.39158501  0.63576108     0.14100
C875        C  0.42754103  0.32296163  0.50849420     0.85900
C876        C  0.45859814  0.33514018  0.98727628    -0.54300
C877        C  0.48058456  0.35274901  0.50370929     0.08800
C878        C  0.46554613  0.36444045  0.53631916     0.19800
C879        C  0.44221967  0.30820776  0.54081998    -0.55000
C880        C  0.46141296  0.33010439  0.55587931     0.08900
C881        C  0.41100147  0.35492615  0.51521684    -0.54600
C882        C  0.42839656  0.37664755  0.53064745     0.09500
H883        H  0.46482006  0.32323056  0.96556709     0.14000
H884        H  0.48137422  0.38267210  0.54778967    -0.00200
H885        H  0.43816496  0.28267759  0.55096717     0.14300
H886        H  0.38529363  0.35893439  0.00996041     0.14100
O887        O  0.27229642  0.99010287  0.61352555    -0.81500
O888        O  0.39365685  0.39733176  0.57331984    -0.66200
O889        O  0.33293033  0.46785233  0.59109028    -1.12800
C890        C  0.26939535  0.42367721  0.00930670     1.05400
O891        O  0.38767231  0.41833929  0.52219615    -0.79400
O892        O  0.34138663  0.45019081  0.98530297    -0.66900
Ni893      Ni  0.30829976  0.46374911  0.63124731     1.34900
C894        C  0.34003932  0.48137889  0.98872151     0.84200
O895        O  0.38641589  0.43967415  0.62439063    -0.79900
O896        O  0.34320782  0.44131500  0.65533727    -0.90200
C897        C  0.40476735  0.40115129  0.54395985     0.83700
O898        O  0.29058867  0.42045077  0.62057675    -0.68400
O899        O  0.29343403  0.40321813  0.00459014    -0.87700
C900        C  0.30499951  0.39155530  0.61949362     0.84600
C901        C  0.37244513  0.45040486  0.64951206     1.06100
H902        H  0.31437879  0.40613509  0.55994983     0.37900
O903        O  0.32956508  0.42352013  0.55203440    -1.10300
O904        O  0.33237113  0.49043381  0.51718937    -0.67000
Ni905      Ni  0.30554740  0.46385270  0.55328186     1.26300
O906        O  0.33583015  0.39152125  0.61227304    -0.67200
O907        O  0.27432054  0.45171041  0.52014804    -0.79500
C908        C  0.27450607  0.01348165  0.59032719     0.83900
O909        O  0.28408497  0.00603518  0.56203777    -0.66700
Ni910      Ni  0.34125640  0.40891560  0.51290310     1.27400
Ni911      Ni  0.36058834  0.42939812  0.58659587     1.26100
H912        H  0.34554285  0.48851362  0.58868911     0.38500
C913        C  0.26677732  0.40960175  0.70177543    -0.26900
C914        C  0.24294802  0.38466872  0.69614677    -0.15000
C915        C  0.20970427  0.39514855  0.69413966     0.35700
C916        C  0.20149668  0.42699925  0.70324711    -0.26300
C917        C  0.22525572  0.44614071  0.71829635    -0.15600
C918        C  0.25832788  0.43980117  0.71312275     0.36700
N919        N  0.28362303  0.46263023  0.72114864    -0.89800
H920        H  0.29264867  0.40621573  0.69719479     0.17900
H921        H  0.17571651  0.43334844  0.70499001     0.17900
N922        N  0.18381518  0.37391569  0.68439956    -0.88900
H923        H  0.29733376  0.46947971  0.70021029     0.35200
H924        H  0.29919409  0.44994141  0.73834832     0.40300
H925        H  0.18269277  0.35244411  0.70094968     0.39900
H926        H  0.18887808  0.36690920  0.66126117     0.34800
C927        C  0.19337458  0.04892817  0.73191245    -0.26900
C928        C  0.20251930  0.54330549  0.76779305    -0.15000
C929        C  0.18739025  0.56394807  0.78881766     0.35700
C930        C  0.15675449  0.08133043  0.77624537    -0.26300
C931        C  0.14229486  0.07463005  0.74664306    -0.15600
C932        C  0.16253788  0.06152108  0.72282955     0.36700
N933        N  0.15065682  0.05555834  0.69137837    -0.89800
H934        H  0.20642222  0.03447327  0.71514210     0.17900
H935        H  0.14342380  0.09476607  0.79355453     0.17900
N936        N  0.20001714  0.56555653  0.82095389    -0.88900
H937        H  0.15233038  0.02976174  0.68891381     0.35200
H938        H  0.16599618  0.06844849  0.67414908     0.40300
H939        H  0.18196957  0.55665911  0.83755641     0.39900
H940        H  0.20435477  0.59090467  0.82409989     0.34800
C941        C  0.14457188  0.49133150  0.83947220    -0.26900
C942        C  0.15170898  0.49745483  0.80635975    -0.15000
C943        C  0.12700969  0.49237539  0.78341214     0.35700
C944        C  0.09706306  0.47842831  0.79392800    -0.26300
C945        C  0.09323845  0.46472333  0.82623826    -0.15600
C946        C  0.11682131  0.47240612  0.84950614     0.36700
N947        N  0.11486221  0.45802154  0.88251672    -0.89800
H948        H  0.16379537  0.49446102  0.85713717     0.17900
H949        H  0.07845109  0.47484189  0.77584981     0.17900
N950        N  0.13411888  0.49552507  0.74937845    -0.88900
H951        H  0.11542964  0.47768576  0.89750398     0.35200
H952        H  0.13568955  0.44311486  0.88765171     0.40300
H953        H  0.11537196  0.50962139  0.73739268     0.39900
H954        H  0.13306807  0.47163713  0.74106614     0.34800
C955        C  0.15504290  0.35641186  0.78489044    -0.26900
C956        C  0.18251580  0.33545167  0.79016232    -0.15000
C957        C  0.21401677  0.34757280  0.78075474     0.35700
C958        C  0.21782630  0.38187596  0.77178000    -0.26300
C959        C  0.19052362  0.40338239  0.76978861    -0.15600
C960        C  0.15892399  0.39030494  0.77468783     0.36700
N961        N  0.13097877  0.41197658  0.77210455    -0.89800
H962        H  0.13062867  0.34757319  0.79163678     0.17900
H963        H  0.24238390  0.39205837  0.76821088     0.17900
N964        N  0.24240865  0.32624174  0.78055237    -0.88900
H965        H  0.11889584  0.40938109  0.79443921     0.35200
H966        H  0.11521645  0.40365756  0.75456444     0.40300
H967        H  0.23605936  0.30074814  0.78382764     0.39900
H968        H  0.25784690  0.33168710  0.79959566     0.34800
C969        C  0.22164346  0.40557314  0.89919126    -0.26900
C970        C  0.22293600  0.43301327  0.91789558    -0.15000
C971        C  0.23154249  0.46540255  0.90346476     0.35700
C972        C  0.23326461  0.47048848  0.86997751    -0.26300
C973        C  0.23122883  0.44324343  0.85121487    -0.15600
C974        C  0.22638875  0.41039797  0.86577831     0.36700
N975        N  0.22449249  0.38255331  0.84634275    -0.89800
H976        H  0.21502773  0.38072737  0.91022677     0.17900
H977        H  0.23633295  0.49588490  0.85846261     0.17900
N978        N  0.23922116  0.49327349  0.92181235    -0.88900
H979        H  0.21961447  0.36017880  0.86084361     0.35200
H980        H  0.24773008  0.37982282  0.83626777     0.40300
H981        H  0.24172536  0.48573680  0.94655726     0.39900
H982        H  0.21733655  0.01195552  0.91827552     0.34800
C983        C  0.34553362  0.28193328  0.00180415    -0.26900
C984        C  0.33745623  0.29258102  0.96989764    -0.15000
C985        C  0.35753845  0.31628264  0.95227060     0.35700
C986        C  0.39023588  0.31898448  0.96170713    -0.26300
C987        C  0.40091761  0.30450060  0.99260559    -0.15600
C988        C  0.37625972  0.28601909  0.51512239     0.36700
N989        N  0.38248399  0.27534390  0.54857772    -0.89800
H990        H  0.32911658  0.26276994  0.51825180     0.17900
H991        H  0.40598463  0.33626181  0.94701705     0.17900
N992        N  0.34522266  0.33681365  0.92455089    -0.88900
H993        H  0.37908325  0.24924265  0.55232497     0.35200
H994        H  0.36543138  0.28689790  0.56274399     0.40300
H995        H  0.33390805  0.32148966  0.90871422     0.39900
H996        H  0.32679948  0.35212823  0.93271827     0.34800
C997        C  0.26196216  0.18715332  0.51268182    -0.26900
C998        C  0.29986925  0.18943479  0.00630002    -0.15000
C999        C  0.32138901  0.16618797  0.02274634     0.35700
C1000       C  0.30427323  0.13822410  0.54129638    -0.26300
C1001       C  0.26998210  0.13317897  0.54364817    -0.15600
C1002       C  0.24879034  0.15984063  0.53165556     0.36700
N1003       N  0.21421383  0.15956766  0.53899403    -0.89800
H1004       H  0.24545053  0.20587944  0.50121246     0.17900
H1005       H  0.32128906  0.12097813  0.55427684     0.17900
N1006       N  0.35637289  0.17050021  0.02154796    -0.88900
H1007       H  0.20231539  0.18036076  0.52686597     0.35200
H1008       H  0.21166727  0.16206801  0.56376183     0.40300
H1009       H  0.36195458  0.19405422  0.02931195     0.39900
H1010       H  0.36459281  0.17031815  0.99773645     0.34800
C1011       C  0.21023822  0.27995593  0.90231895    -0.26900
C1012       C  0.20141353  0.25139313  0.88604877    -0.15000
C1013       C  0.19824443  0.22048577  0.90557154     0.35700
C1014       C  0.21427809  0.21700844  0.93583914    -0.26300
C1015       C  0.23444605  0.24358762  0.94418371    -0.15600
C1016       C  0.22643947  0.27603885  0.93184622     0.36700
N1017       N  0.24050244  0.30449630  0.94549347    -0.89800
H1018       H  0.20545844  0.30547149  0.89213358     0.17900
H1019       H  0.21673961  0.19216232  0.94872403     0.17900
N1020       N  0.17998163  0.19301589  0.89450930    -0.88900
H1021       H  0.25570123  0.31730762  0.92804771     0.35200
H1022       H  0.22132895  0.32062901  0.95034455     0.40300
H1023       H  0.16135740  0.18663615  0.91134254     0.39900
H1024       H  0.19549798  0.17221876  0.89431784     0.34800
C1025       C  0.30160592  0.51940469  0.84216415    -0.26900
C1026       C  0.30723443  0.49468020  0.86857162    -0.15000
C1027       C  0.30892303  0.46072516  0.86147869     0.35700
C1028       C  0.29840400  0.45224819  0.83098433    -0.26300
C1029       C  0.28320692  0.47681700  0.80927179    -0.15600
C1030       C  0.28959185  0.51082823  0.81258703     0.36700
N1031       N  0.28182548  0.53660950  0.78703369    -0.89800
H1032       H  0.30537949  0.04629906  0.84508007     0.17900
H1033       H  0.29601527  0.42583350  0.82712555     0.17900
N1034       N  0.32052665  0.43491920  0.88519778    -0.88900
H1035       H  0.28662033  0.56060002  0.79419558     0.35200
H1036       H  0.29765453  0.53345120  0.76772021     0.40300
H1037       H  0.30183449  0.41702156  0.88955882     0.39900
H1038       H  0.34051809  0.42310021  0.87530898     0.34800
C1039       C  0.35534291  0.11467465  0.92356143    -0.26900
C1040       C  0.33081648  0.09191949  0.93406388    -0.15000
C1041       C  0.30390954  0.10247507  0.95165412     0.35700
C1042       C  0.30189987  0.13643659  0.95758709    -0.26300
C1043       C  0.32674951  0.15965095  0.94715922    -0.15600
C1044       C  0.35331852  0.14831591  0.92962136     0.36700
N1045       N  0.37867724  0.17081836  0.91789341    -0.89800
H1046       H  0.37611557  0.10645590  0.91015257     0.17900
H1047       H  0.28003668  0.14481720  0.96899603     0.17900
N1048       N  0.27925915  0.07870616  0.96397726    -0.88900
H1049       H  0.37974845  0.17079342  0.89266294     0.35200
H1050       H  0.40041700  0.16035344  0.92731732     0.40300
H1051       H  0.26628476  0.07085882  0.94423203     0.39900
H1052       H  0.26216923  0.09033747  0.97803589     0.34800
C1053       C  0.26234869  0.17853676  0.89323645    -0.26900
C1054       C  0.26856846  0.21328282  0.88935563    -0.15000
C1055       C  0.27119858  0.23091731  0.85863514     0.35700
C1056       C  0.27205999  0.21239561  0.83212935    -0.26300
C1057       C  0.27265154  0.17710025  0.83706175    -0.15600
C1058       C  0.26519780  0.15980310  0.86694160     0.36700
N1059       N  0.26271590  0.12364821  0.87062487    -0.89800
H1060       H  0.25889751  0.16579542  0.91717222     0.17900
H1061       H  0.27640548  0.22520005  0.80820991     0.17900
N1062       N  0.27586708  0.26686770  0.85490441    -0.88900
H1063       H  0.25674844  0.11510193  0.89456465     0.35200
H1064       H  0.28590806  0.11392035  0.86615166     0.40300
H1065       H  0.27714041  0.27566487  0.83031376     0.39900
H1066       H  0.29862132  0.27223323  0.86498477     0.34800
C1067       C  0.41741251  0.24156630  0.89048145    -0.26900
C1068       C  0.43234918  0.22252057  0.91686494    -0.15000
C1069       C  0.42127011  0.22670900  0.94860216     0.35700
C1070       C  0.38993080  0.23873784  0.95207104    -0.26300
C1071       C  0.37243125  0.25328290  0.92516316    -0.15600
C1072       C  0.38822615  0.25904289  0.89512204     0.36700
N1073       N  0.37417254  0.28151702  0.86964312    -0.89800
H1074       H  0.42716106  0.24146426  0.86623343     0.17900
H1075       H  0.37869447  0.23485149  0.97572198     0.17900
N1076       N  0.44066722  0.21927349  0.97746052    -0.88900
H1077       H  0.37464725  0.30558459  0.87750800     0.35200
H1078       H  0.38963642  0.28338057  0.84945564     0.40300
H1079       H  0.46544784  0.21624690  0.97215568     0.39900
H1080       H  0.43145221  0.19750332  0.99047655     0.34800
C1081       C  0.46684655  0.34931365  0.60979317    -0.26900
C1082       C  0.47105953  0.32313376  0.58991510    -0.15000
C1083       C  0.47641440  0.28983692  0.60413553     0.35700
C1084       C  0.47268225  0.28305971  0.63737949    -0.26300
C1085       C  0.46777322  0.30910147  0.65705901    -0.15600
C1086       C  0.46532525  0.34251052  0.64327229     0.36700
N1087       N  0.46026138  0.36947665  0.66300487    -0.89800
H1088       H  0.46227206  0.37489837  0.59954053     0.17900
H1089       H  0.47420021  0.25722750  0.64801444     0.17900
N1090       N  0.48648455  0.26263033  0.58601767    -0.88900
H1091       H  0.43841012  0.38172862  0.65568679     0.35200
H1092       H  0.47962869  0.38660668  0.65889205     0.40300
H1093       H  0.49218797  0.27095253  0.56199860     0.39900
H1094       H  0.46737778  0.24501998  0.58631266     0.34800
C1095       C  0.36398931  0.27196874  0.73335434    -0.26900
C1096       C  0.38716469  0.26156938  0.71162240    -0.15000
C1097       C  0.37912650  0.26336980  0.67841452     0.35700
C1098       C  0.35332261  0.28405212  0.66694556    -0.26300
C1099       C  0.33310665  0.29975035  0.68844034    -0.15600
C1100       C  0.33612280  0.28965880  0.72209417     0.36700
N1101       N  0.31192755  0.29788213  0.74509735    -0.89800
H1102       H  0.36957986  0.27112561  0.75890567     0.17900
H1103       H  0.35096373  0.28926328  0.64097199     0.17900
N1104       N  0.39937505  0.24841942  0.65535844    -0.88900
H1105       H  0.30325990  0.27539842  0.75726611     0.35200
H1106       H  0.32329818  0.31173080  0.76222422     0.40300
H1107       H  0.41943088  0.23615686  0.66691889     0.39900
H1108       H  0.40860649  0.26777088  0.63905814     0.34800
C1109       C  0.46588907  0.37796213  0.73150419    -0.26900
C1110       C  0.43708679  0.35855612  0.73487130    -0.15000
C1111       C  0.40634186  0.37384278  0.73162090     0.35700
C1112       C  0.40471116  0.40822815  0.72307214    -0.26300
C1113       C  0.43360153  0.42739669  0.71828259    -0.15600
C1114       C  0.46434157  0.41273274  0.72561769     0.36700
N1115       N  0.49373731  0.43284581  0.72547841    -0.89800
H1116       H  0.48962339  0.36589284  0.73190834     0.17900
H1117       H  0.38074472  0.41892952  0.71750958     0.17900
N1118       N  0.37686496  0.35423120  0.73488327    -0.88900
H1119       H  0.01416929  0.41643803  0.73273755     0.35200
H1120       H  0.49146146  0.44891868  0.74386379     0.40300
H1121       H  0.36253351  0.36349766  0.75294384     0.39900
H1122       H  0.36393576  0.35810911  0.71299024     0.34800
C1123       C  0.46897976  0.37510931  0.80731234    -0.26900
C1124       C  0.00245638  0.38175152  0.80231879    -0.15000
C1125       C  0.02353562  0.35564933  0.79206007     0.35700
C1126       C  0.01027717  0.32551289  0.78342415    -0.26300
C1127       C  0.47617927  0.32145607  0.78543914    -0.15600
C1128       C  0.45671911  0.34330655  0.80192928     0.36700
N1129       N  0.42343692  0.33449796  0.81009645    -0.89800
H1130       H  0.45302780  0.39219230  0.81871371     0.17900
H1131       H  0.02589781  0.30842261  0.77160555     0.17900
N1132       N  0.05846322  0.35822203  0.78924270    -0.88900
H1133       H  0.40801085  0.35310622  0.79898057     0.35200
H1134       H  0.42098358  0.33502493  0.83516863     0.40300
H1135       H  0.06897474  0.36342733  0.81119153     0.39900
H1136       H  0.06455609  0.37593527  0.77000773     0.34800
C1137       C  0.03264724  0.29772052  0.67632395    -0.26900
C1138       C  0.51923693  0.27473096  0.69788501    -0.15000
C1139       C  0.52374494  0.24144338  0.69098370     0.35700
C1140       C  0.03723596  0.23207796  0.65976843    -0.26300
C1141       C  0.04645765  0.25870667  0.63628658    -0.15600
C1142       C  0.04490048  0.29198633  0.64567100     0.36700
N1143       N  0.05572052  0.32007636  0.62404684    -0.89800
H1144       H  0.02956034  0.32355413  0.68191480     0.17900
H1145       H  0.04142388  0.20604053  0.65604028     0.17900
N1146       N  0.51029632  0.21424229  0.71196620    -0.88900
H1147       H  0.03603088  0.33668782  0.61976202     0.35200
H1148       H  0.07424223  0.33262577  0.63567789     0.40300
H1149       H  0.49402316  0.20092937  0.69834239     0.39900
H1150       H  0.52955439  0.19808391  0.71956286     0.34800
C1151       C  0.41602543  0.23213117  0.79147169    -0.26900
C1152       C  0.42986068  0.22376891  0.76218882    -0.15000
C1153       C  0.41700595  0.19642129  0.74737366     0.35700
C1154       C  0.38572363  0.18470747  0.75609716    -0.26300
C1155       C  0.36834522  0.19888471  0.78069328    -0.15600
C1156       C  0.38489069  0.21964803  0.80073462     0.36700
N1157       N  0.36891177  0.23112540  0.82820617    -0.89800
H1158       H  0.42635469  0.25254844  0.80375388     0.17900
H1159       H  0.37412392  0.16652668  0.74191369     0.17900
N1160       N  0.43339451  0.18422337  0.72030526    -0.88900
H1161       H  0.36282042  0.21019957  0.84423785     0.35200
H1162       H  0.34721655  0.24345806  0.82048729     0.40300
H1163       H  0.41733445  0.18630867  0.70047998     0.39900
H1164       H  0.43806627  0.15857548  0.72614575     0.34800
C1165       C  0.09704463  0.13312712  0.52688727    -0.26900
C1166       C  0.09737258  0.10745244  0.55266225    -0.15000
C1167       C  0.11068640  0.11600069  0.58250380     0.35700
C1168       C  0.10813832  0.14886606  0.59017024    -0.26300
C1169       C  0.09812360  0.17383311  0.56668046    -0.15600
C1170       C  0.09643402  0.16683823  0.53383093     0.36700
N1171       N  0.09009488  0.19253539  0.50797297    -0.89800
H1172       H  0.09264641  0.12739098  0.50223022     0.17900
H1173       H  0.11403053  0.15476864  0.61450526     0.17900
N1174       N  0.12894787  0.09271057  0.60391541    -0.88900
H1175       H  0.10948941  0.20979677  0.50683894     0.35200
H1176       H  0.06845682  0.20498367  0.51318562     0.40300
H1177       H  0.11888483  0.09232768  0.62718047     0.39900
H1178       H  0.15285760  0.10210052  0.60530168     0.34800
C1179       C  0.03349612  0.08585210  0.65744586    -0.26900
C1180       C  0.04864794  0.06030497  0.67702963    -0.15000
C1181       C  0.04609107  0.02659075  0.67072779     0.35700
C1182       C  0.03412874  0.01979306  0.64060977    -0.26300
C1183       C  0.02462967  0.04673592  0.61828065    -0.15600
C1184       C  0.02029231  0.07894575  0.62835319     0.36700
N1185       N  0.00491873  0.10538065  0.60826170    -0.89800
H1186       H  0.03237823  0.11133980  0.66456655     0.17900
H1187       H  0.03634855  0.99456650  0.63314826     0.17900
N1188       N  0.05653713  0.99996992  0.69420855    -0.88900
H1189       H  0.48148406  0.10706568  0.62369662     0.35200
H1190       H  0.02094569  0.12604332  0.60657188     0.40300
H1191       H  0.07459879  0.98594284  0.68377748     0.39900
H1192       H  0.03640561  0.98411615  0.69960683     0.34800
C1193       C  0.14279673  0.02679847  0.54784948    -0.26900
C1194       C  0.12357026  0.01681140  0.57517455    -0.15000
C1195       C  0.13788186  0.01470203  0.60623086     0.35700
C1196       C  0.16858622  0.02945196  0.60972923    -0.26300
C1197       C  0.18556841  0.04407844  0.58235012    -0.15600
C1198       C  0.17497500  0.03716484  0.55131986     0.36700
N1199       N  0.19635264  0.04152089  0.52361975    -0.89800
H1200       H  0.13221101  0.02912550  0.52381861     0.17900
H1201       H  0.17747862  0.03169398  0.63396583     0.17900
N1202       N  0.12044979  0.00122396  0.63466035    -0.88900
H1203       H  0.18438692  0.03459731  0.50286404     0.35200
H1204       H  0.21591074  0.02472853  0.52805363     0.40300
H1205       H  0.09912689  0.98878219  0.62827190     0.39900
H1206       H  0.11327256  0.02153697  0.64714333     0.34800
C1207       C  0.45240388  0.03994264  0.60483031    -0.26900
C1208       C  0.45815278  0.00835659  0.62239786    -0.15000
C1209       C  0.47032982  0.48411332  0.60390596     0.35700
C1210       C  0.98186413  0.99240457  0.57240638    -0.26300
C1211       C  0.98597443  0.02594315  0.56151102    -0.15600
C1212       C  0.96498682  0.04941272  0.57390834     0.36700
N1213       N  0.95919025  0.08176322  0.55666981    -0.89800
H1214       H  0.43846459  0.05921043  0.61545221     0.17900
H1215       H  0.99694030  0.46970660  0.56256244     0.17900
N1216       N  0.46982462  0.44872017  0.61396650    -0.88900
H1217       H  0.96949433  0.08238592  0.53350702     0.35200
H1218       H  0.93383976  0.08415969  0.55314886     0.40300
H1219       H  0.44729018  0.44100341  0.62396623     0.39900
H1220       H  0.48996260  0.44199330  0.62880993     0.34800
C1221       C  0.02607059  0.07821188  0.97513668    -0.26900
C1222       C  0.03978940  0.08960476  0.50371413    -0.15000
C1223       C  0.02676596  0.12000921  0.51337369     0.35700
C1224       C  0.00891275  0.14197577  0.99132003    -0.26300
C1225       C  0.00504318  0.13321106  0.95990144    -0.15600
C1226       C  0.00709360  0.09905273  0.95412876     0.36700
N1227       N  0.99003348  0.08593477  0.92751630    -0.89800
H1228       H  0.03126544  0.05333926  0.96856134     0.17900
H1229       H  0.00552058  0.16744999  0.49676711     0.17900
N1230       N  0.02586990  0.12732653  0.54634255    -0.88900
H1231       H  0.99404998  0.06004022  0.92744405     0.35200
H1232       H  0.96487398  0.08909595  0.93116322     0.40300
H1233       H  0.03657390  0.15086925  0.54805396     0.39900
H1234       H  0.00114593  0.13080618  0.55171305     0.34800
C1235       C  0.10495130  0.45640791  0.55051908    -0.26900
C1236       C  0.08596000  0.97875212  0.53016853    -0.15000
C1237       C  0.09631154  0.98412992  0.49773230     0.35700
C1238       C  0.12909903  0.47589058  0.98817645    -0.26300
C1239       C  0.14987735  0.45813643  0.51172198    -0.15600
C1240       C  0.13726216  0.44858039  0.54338960     0.36700
N1241       N  0.15624544  0.43075257  0.56872988    -0.89800
H1242       H  0.09642856  0.45040165  0.57522299     0.17900
H1243       H  0.13510927  0.48085856  0.96289220     0.17900
N1244       N  0.07842511  0.00473600  0.97378803    -0.88900
H1245       H  0.17639890  0.44557447  0.57395284     0.35200
H1246       H  0.16422417  0.40774606  0.56157384     0.40300
H1247       H  0.07883190  0.02987758  0.97857769     0.39900
H1248       H  0.05461641  0.99492450  0.97353797     0.34800
C1249       C  0.04377574  0.52911913  0.03269797     0.44900
H1250       H  0.03022945  0.51897788  0.01260180    -0.04100
C1251       C  0.07415302  0.55006354  0.08178221     0.44900
H1252       H  0.08491446  0.55665028  0.10459885    -0.04100
C1253       C  0.05803674  0.56528194  0.02650839    -0.17800
C1254       C  0.02166902  0.53262830  0.06113211    -0.17600
C1255       C  0.07248783  0.50658792  0.04572996    -0.18000
C1256       C  0.07712338  0.57524127  0.05191664    -0.17900
C1257       C  0.03799197  0.54315694  0.08687746    -0.17500
C1258       C  0.08888921  0.51880949  0.07117598    -0.17800
C1259       C  0.47322440  0.77209704  0.24590401     0.44900
H1260       H  0.49100929  0.75807080  0.26248914    -0.04100
C1261       C  0.43177363  0.80489448  0.20658179     0.44900
H1262       H  0.41398607  0.81913008  0.19002483    -0.04100
C1263       C  0.48731028  0.78442108  0.21181915    -0.17800
C1264       C  0.44219941  0.75186467  0.23896383    -0.17600
C1265       C  0.45925101  0.80416209  0.25873996    -0.18000
C1266       C  0.46466162  0.80116291  0.19169890    -0.17900
C1267       C  0.42120980  0.76935853  0.21744697    -0.17500
C1268       C  0.43831266  0.82147924  0.23711456    -0.17800
C1269       C  0.99846213  0.65990750  0.43323126     0.85900
C1270       C  0.01720946  0.69258473  0.43587725    -0.54300
C1271       C  0.00910966  0.71767885  0.41264116     0.08800
C1272       C  0.48422716  0.70469318  0.38736898     0.19800
C1273       C  0.46483653  0.66998669  0.43374361    -0.55000
C1274       C  0.45674991  0.69602383  0.41118319     0.08900
C1275       C  0.00861616  0.65080834  0.40025043    -0.54600
C1276       C  0.49472289  0.66857512  0.37596425     0.09500
H1277       H  0.03386285  0.69629682  0.45577426     0.14000
H1278       H  0.47818116  0.72365362  0.36688268    -0.00200
H1279       H  0.44885553  0.66059720  0.45350053     0.14300
H1280       H  0.02167623  0.62764776  0.39697923     0.14100
C1281       C  0.28922681  0.66678408  0.25476911     0.85900
C1282       C  0.31302297  0.69616076  0.25886272    -0.54300
C1283       C  0.33319256  0.69174324  0.28532303     0.08800
C1284       C  0.32467037  0.66082077  0.30792507     0.19800
C1285       C  0.31335322  0.63495407  0.25849521    -0.55000
C1286       C  0.33260632  0.63283144  0.28729802     0.08900
C1287       C  0.26930082  0.66186590  0.28543738    -0.54600
C1288       C  0.28728446  0.66038460  0.31262780     0.09500
H1289       H  0.31915813  0.71414787  0.23834338     0.14000
H1290       H  0.33833540  0.65926025  0.33130636    -0.00200
H1291       H  0.31641409  0.61794085  0.23980858     0.14300
H1292       H  0.24278324  0.66500787  0.28622990     0.14100
C1293       C  0.32024750  0.50734122  0.39965130     0.85900
C1294       C  0.32014815  0.98800734  0.43324137    -0.54300
C1295       C  0.34050825  0.00148562  0.45569831     0.08800
C1296       C  0.36083183  0.53476539  0.43747582     0.19800
C1297       C  0.31139359  0.54389797  0.40662300    -0.55000
C1298       C  0.33244909  0.55766691  0.42700804     0.08900
C1299       C  0.35630192  0.50419613  0.39142538    -0.54600
C1300       C  0.37573785  0.52773458  0.40206894     0.09500
H1301       H  0.30412067  0.96639992  0.43895223     0.14000
H1302       H  0.37873358  0.54612189  0.45355077    -0.00200
H1303       H  0.28955256  0.55712480  0.39737654     0.14300
H1304       H  0.36661765  0.98885499  0.37286619     0.14100
O1305       O  0.39584279  0.53832336  0.25136884    -0.81500
O1306       O  0.44791607  0.63350454  0.35623194    -0.66200
O1307       O  0.42356415  0.57160395  0.29460824    -1.12800
C1308       C  0.00717878  0.50261883  0.33813863     1.05400
O1309       O  0.50016704  0.62298429  0.34319076    -0.79400
O1310       O  0.03123148  0.57698345  0.31269742    -0.66900
Ni1311     Ni  0.38850507  0.54169346  0.29679786     1.34900
C1312       C  0.02163940  0.58378032  0.28371965     0.84200
O1313       O  0.38664645  0.62141906  0.31498878    -0.79900
O1314       O  0.36050671  0.58046609  0.28841866    -0.90200
C1315       C  0.47899323  0.64205112  0.35554624     0.83700
O1316       O  0.38085750  0.53918916  0.34314098    -0.68400
O1317       O  0.01300866  0.52459626  0.35875659    -0.87700
C1318       C  0.38934483  0.54958237  0.37036593     0.84600
C1319       C  0.36203711  0.61042410  0.29736471     1.06100
H1320       H  0.45682911  0.54901292  0.35406304     0.37900
O1321       O  0.46496604  0.56565444  0.33752325    -1.10300
O1322       O  0.49242043  0.57752964  0.27621684    -0.67000
Ni1323     Ni  0.46088183  0.54424653  0.29863068     1.26300
O1324       O  0.40833348  0.57525556  0.36927056    -0.67200
O1325       O  0.49471430  0.01204837  0.30971389    -0.79500
C1326       C  0.42246627  0.52774636  0.23932886     0.83900
O1327       O  0.45016342  0.52588561  0.25590718    -0.66700
Ni1328     Ni  0.00637624  0.57475466  0.35181318     1.27400
Ni1329     Ni  0.42962301  0.59856127  0.32902909     1.26100
H1330       H  0.42415945  0.58581674  0.27430631     0.38500
C1331       C  0.32047026  0.72044299  0.42124801     0.44900
H1332       H  0.33131562  0.71033096  0.39955770    -0.04100
C1333       C  0.29311222  0.74557299  0.46993306     0.44900
H1334       H  0.28113814  0.75653931  0.49058435    -0.04100
C1335       C  0.32216889  0.69665182  0.45222223    -0.17800
C1336       C  0.33606542  0.75311353  0.42899365    -0.17600
C1337       C  0.28432464  0.72713018  0.41737628    -0.18000
C1338       C  0.30914755  0.71074174  0.47861082    -0.17900
C1339       C  0.32031884  0.76775585  0.45345717    -0.17500
C1340       C  0.26920328  0.73870119  0.44332366    -0.17800
C1341       C  0.17771093  0.93928799  0.99899296     0.85900
C1342       C  0.21042378  0.93479523  0.01675732    -0.54300
C1343       C  0.23279427  0.91486539  0.00251763     0.08800
C1344       C  0.21641401  0.89637993  0.47455016     0.19800
C1345       C  0.18800473  0.94924660  0.46534119    -0.55000
C1346       C  0.20868398  0.92761488  0.45213637     0.08900
C1347       C  0.16396786  0.90448055  0.99877312    -0.54600
C1348       C  0.18052741  0.88149117  0.48322437     0.09500
H1349       H  0.21720108  0.95080480  0.03547353     0.14000
H1350       H  0.23322024  0.87826659  0.46437416    -0.00200
H1351       H  0.18132189  0.97306481  0.45225603     0.14300
H1352       H  0.13869837  0.89937742  0.00676848     0.14100
C1353       C  0.18422010  0.75789879  0.35340721     0.85900
C1354       C  0.18212259  0.73383734  0.32651967    -0.54300
C1355       C  0.16281101  0.74666236  0.30064793     0.08800
C1356       C  0.14659302  0.78195975  0.30659354     0.19800
C1357       C  0.19690820  0.79099988  0.33400893    -0.55000
C1358       C  0.17700322  0.80286742  0.30904266     0.08900
C1359       C  0.14883209  0.76231324  0.36305725    -0.54600
C1360       C  0.13176314  0.78258455  0.34207873     0.09500
H1361       H  0.19712324  0.71140875  0.32611766     0.14000
H1362       H  0.12939860  0.79118936  0.28688449    -0.00200
H1363       H  0.21950436  0.80375498  0.33953338     0.14300
H1364       H  0.14140472  0.75861257  0.38849306     0.14100
C1365       C  0.01523597  0.90951577  0.32055511     0.85900
C1366       C  0.49518360  0.94342012  0.32605093    -0.54300
C1367       C  0.01226311  0.96234571  0.34610468     0.08800
C1368       C  0.04356091  0.94305272  0.36369622     0.19800
C1369       C  0.05023595  0.92256897  0.31180477    -0.55000
C1370       C  0.06484483  0.94072245  0.33435578     0.08900
C1371       C  0.01478855  0.89250774  0.35451875    -0.54600
C1372       C  0.03601895  0.90393148  0.37539969     0.09500
H1373       H  0.47489086  0.95210987  0.31034140     0.14000
H1374       H  0.05400709  0.95724603  0.38301578     0.02600
H1375       H  0.05931641  0.92376734  0.28727881     0.14300
H1376       H  0.00266006  0.86812751  0.35917861     0.14100
O1377       O  0.01891145  0.77660808  0.39524391    -0.81500
O1378       O  0.14533348  0.86422461  0.43733910    -0.66200
O1379       O  0.08131209  0.79608608  0.41765418    -1.12800
C1380       C  0.01795269  0.84404771  0.99828266     1.05400
O1381       O  0.13550088  0.84390076  0.48806912    -0.79400
O1382       O  0.08754575  0.81650540  0.02403958    -0.66900
Ni1383     Ni  0.05644600  0.80206085  0.37769354     1.34900
C1384       C  0.08720131  0.78559237  0.01977658     0.84200
O1385       O  0.13608088  0.82173350  0.38473044    -0.79900
O1386       O  0.09194156  0.82447970  0.35463425    -0.90200
C1387       C  0.15465700  0.86009821  0.46750524     0.83700
O1388       O  0.04080363  0.84411008  0.39230854    -0.68400
O1389       O  0.04222647  0.86451185  0.00270389    -0.87700
C1390       C  0.05631823  0.87253706  0.38966221     0.84600
C1391       C  0.12061193  0.81319115  0.35919538     1.06100
H1392       H  0.06466270  0.85883109  0.44778717     0.37900
O1393       O  0.07905862  0.84101345  0.45614050    -1.10300
O1394       O  0.07998217  0.77569790  0.49134013    -0.67000
Ni1395     Ni  0.05366770  0.80166621  0.45459662     1.26300
O1396       O  0.08745217  0.87202063  0.39594533    -0.67200
O1397       O  0.02223005  0.81477711  0.48674811    -0.79500
C1398       C  0.01970255  0.75338922  0.41852456     0.83900
O1399       O  0.03037273  0.76006662  0.44676712    -0.66700
Ni1400     Ni  0.09020175  0.85639577  0.99591515     1.27400
Ni1401     Ni  0.11065043  0.83357081  0.42256087     1.26100
H1402       H  0.09274870  0.77477760  0.42015092     0.38500
C1403       C  0.26044190  0.60644736  0.06940288     0.85900
C1404       C  0.28157960  0.57485183  0.07518905    -0.54300
C1405       C  0.26878726  0.55055748  0.09708807     0.08800
C1406       C  0.23754980  0.56393068  0.11522438     0.19800
C1407       C  0.22606338  0.59221380  0.06239866    -0.55000
C1408       C  0.21462633  0.56869470  0.08619450     0.08900
C1409       C  0.25813348  0.62088596  0.10138248    -0.54600
C1410       C  0.24287825  0.60161710  0.12505822     0.09500
H1411       H  0.30092254  0.56937649  0.05846411     0.14000
H1412       H  0.22986956  0.54595973  0.13587069    -0.00200
H1413       H  0.21322037  0.59884820  0.03976777     0.14300
H1414       H  0.26352372  0.64746782  0.10331501     0.14100
C1415       C  0.04910581  0.59010286  0.25750566     0.85900
C1416       C  0.08377958  0.57698405  0.26855121    -0.54300
C1417       C  0.10656520  0.57767572  0.24368870     0.08800
C1418       C  0.09211487  0.58915134  0.21064152     0.19800
C1419       C  0.05833617  0.62603283  0.23921159    -0.55000
C1420       C  0.08261312  0.62487776  0.21495338     0.08900
C1421       C  0.03970230  0.56826319  0.23158295    -0.54600
C1422       C  0.06145470  0.56788797  0.20784601     0.09500
H1423       H  0.09007753  0.56960418  0.29372379     0.14000
H1424       H  0.10730731  0.58868412  0.18884444    -0.00200
H1425       H  0.05119772  0.64930251  0.24873098     0.14300
H1426       H  0.01605984  0.55557905  0.23026727     0.14100
C1427       C  0.06826489  0.75233862  0.10779591     0.85900
C1428       C  0.06486389  0.77163139  0.07458696    -0.54300
C1429       C  0.08842859  0.76363398  0.05250710     0.08800
C1430       C  0.11408180  0.73546774  0.06907972     0.19800
C1431       C  0.06706608  0.71479063  0.09924776    -0.55000
C1432       C  0.09079523  0.70717976  0.07783750     0.08900
C1433       C  0.10315026  0.76234003  0.11621112    -0.54600
C1434       C  0.12612079  0.74269781  0.10505996     0.09500
H1435       H  0.04628543  0.79083466  0.06905873     0.14000
H1436       H  0.13449951  0.72908911  0.05306223    -0.00200
H1437       H  0.04855327  0.69640087  0.10764523     0.14300
H1438       H  0.10776397  0.77574799  0.13752194     0.14100
O1439       O  0.14021162  0.72183843  0.25500130    -0.81500
O1440       O  0.19564393  0.63391347  0.14596023    -0.66200
O1441       O  0.16946119  0.69230063  0.21012024    -1.12800
C1442       C  0.25495326  0.76192738  0.16935647     1.05400
O1443       O  0.24674078  0.64096764  0.16414016    -0.79400
O1444       O  0.27827343  0.68513548  0.19790804    -0.66900
Ni1445     Ni  0.13368868  0.72092149  0.20917865     1.34900
C1446       C  0.26590269  0.67854888  0.22589232     0.84200
O1447       O  0.13419809  0.64285949  0.18610718    -0.79900
O1448       O  0.10575144  0.68097475  0.21378933    -0.90200
C1449       C  0.22634468  0.62436490  0.14810916     0.83700
O1450       O  0.12833400  0.72685842  0.16307641    -0.68400
O1451       O  0.26334828  0.73931621  0.15040048    -0.87700
C1452       C  0.13855803  0.71894088  0.13565251     0.84600
C1453       C  0.10873152  0.65154800  0.20358064     1.06100
H1454       H  0.20616906  0.71608491  0.15170389     0.37900
O1455       O  0.21281584  0.69921553  0.16872359    -1.10300
O1456       O  0.23573365  0.68678800  0.23136464    -0.67000
Ni1457     Ni  0.20631818  0.72034645  0.20745417     1.26300
O1458       O  0.15716476  0.69319909  0.13557098    -0.67200
O1459       O  0.24202026  0.75302055  0.19762341    -0.79500
C1460       C  0.16610373  0.73467608  0.26677828     0.83900
O1461       O  0.19357731  0.73853741  0.24993230    -0.66700
Ni1462     Ni  0.25572025  0.68954297  0.15682369     1.27400
Ni1463     Ni  0.17699027  0.66684000  0.17480275     1.26100
H1464       H  0.17019970  0.67730754  0.22992678     0.38500
C1465       C  0.23374198  0.98608729  0.26630558     0.44900
H1466       H  0.25089145  0.00129280  0.25017430    -0.04100
C1467       C  0.19225389  0.95116961  0.30332212     0.44900
H1468       H  0.17439900  0.93603855  0.31907527    -0.04100
C1469       C  0.24920486  0.96813464  0.29735452    -0.17800
C1470       C  0.20627141  0.00720574  0.27925487    -0.17600
C1471       C  0.21599775  0.95801546  0.24979403    -0.18000
C1472       C  0.22641124  0.95050814  0.31686598    -0.17900
C1473       C  0.18382510  0.98811332  0.29764750    -0.17500
C1474       C  0.19552940  0.93896139  0.27043103    -0.17800
C1475       C  0.44173872  0.50125230  0.15409945     0.85900
C1476       C  0.43985588  0.52654223  0.18005155    -0.54300
C1477       C  0.41947612  0.51545949  0.20564216     0.08800
C1478       C  0.39982556  0.98155922  0.20057021     0.19800
C1479       C  0.45126629  0.97079993  0.17576524    -0.55000
C1480       C  0.42967456  0.95958860  0.19951555     0.08900
C1481       C  0.40641824  0.49745793  0.14347841    -0.54600
C1482       C  0.38580974  0.98064264  0.16502807     0.09500
H1483       H  0.45595143  0.54828229  0.18028762     0.14000
H1484       H  0.38180455  0.97357866  0.21986297    -0.00200
H1485       H  0.47471346  0.95911470  0.17301386     0.14300
H1486       H  0.39967979  0.50014204  0.11778869     0.14100
C1487       C  0.25622180  0.85507217  0.17969406     0.85900
C1488       C  0.24009001  0.82103188  0.17698206    -0.54300
C1489       C  0.25835246  0.80031648  0.15881553     0.08800
C1490       C  0.29035538  0.82022226  0.14289970     0.19800
C1491       C  0.29124953  0.84436313  0.19278145    -0.55000
C1492       C  0.30827396  0.82415237  0.17410020     0.08900
C1493       C  0.25723242  0.86899047  0.14459387    -0.54600
C1494       C  0.28300849  0.85910715  0.12854319     0.09500
H1495       H  0.21971847  0.81199585  0.19228578     0.14000
H1496       H  0.30278890  0.80577202  0.12502480    -0.00200
H1497       H  0.29934037  0.84925202  0.21684913     0.14300
H1498       H  0.24388450  0.89203451  0.13673192     0.14100
C1499       C  0.42818215  0.82384369  0.00821169     0.85900
C1500       C  0.45875299  0.83523299  0.48688767    -0.54300
C1501       C  0.48097427  0.85415565  0.00349551     0.08800
C1502       C  0.46591548  0.86537635  0.03623621     0.19800
C1503       C  0.44325193  0.80881411  0.04029624    -0.55000
C1504       C  0.46226119  0.83080132  0.05547527     0.08900
C1505       C  0.41139156  0.85549349  0.01540758    -0.54600
C1506       C  0.42862219  0.87723397  0.03088274     0.09500
H1507       H  0.46498671  0.82364762  0.46499791     0.14000
H1508       H  0.48161545  0.88362340  0.04784052    -0.00200
H1509       H  0.43928082  0.78315481  0.05028925     0.14300
H1510       H  0.38530963  0.85753975  0.51061136     0.14100
O1511       O  0.27205055  0.48992411  0.11223100    -0.81500
O1512       O  0.39346258  0.89793364  0.07321144    -0.66200
O1513       O  0.33240531  0.96826917  0.09054294    -1.12800
C1514       C  0.26870221  0.92260164  0.51025286     1.05400
O1515       O  0.38775092  0.91868986  0.02197618    -0.79400
O1516       O  0.34092352  0.94907008  0.48594103    -0.66900
Ni1517     Ni  0.30716147  0.96397163  0.13026002     1.34900
C1518       C  0.33966605  0.98024991  0.48941623     0.84200
O1519       O  0.38545068  0.94007219  0.12431214    -0.79900
O1520       O  0.34188460  0.94177987  0.15488536    -0.90200
C1521       C  0.40480879  0.90173627  0.04393976     0.83700
O1522       O  0.28991636  0.92059353  0.11920278    -0.68400
O1523       O  0.29276508  0.90218356  0.50539480    -0.87700
C1524       C  0.30451967  0.89172564  0.11873153     0.84600
C1525       C  0.37122593  0.95072840  0.14934283     1.06100
H1526       H  0.31413759  0.90674018  0.05930222     0.37900
O1527       O  0.32943381  0.92402443  0.05145689    -1.10300
O1528       O  0.33292631  0.99083295  0.01678617    -0.67000
Ni1529     Ni  0.30552875  0.96447360  0.05240627     1.26300
O1530       O  0.33540243  0.89182576  0.11175418    -0.67200
O1531       O  0.27486039  0.95277808  0.01874541    -0.79500
C1532       C  0.27505535  0.51398103  0.08984042     0.83900
O1533       O  0.28452986  0.50713364  0.06134085    -0.66700
Ni1534     Ni  0.34134400  0.90926077  0.01250932     1.27400
Ni1535     Ni  0.36013892  0.92985070  0.08625864     1.26100
H1536       H  0.34501622  0.98894312  0.08839585     0.38500
C1537       C  0.26735819  0.90826755  0.20386735    -0.26900
C1538       C  0.24330547  0.88400647  0.19693913    -0.15000
C1539       C  0.21030211  0.89523726  0.19392672     0.35700
C1540       C  0.20232256  0.92712038  0.20303604    -0.26300
C1541       C  0.22588292  0.94568353  0.21892117    -0.15600
C1542       C  0.25900418  0.93860089  0.21502671     0.36700
N1543       N  0.28434309  0.96078582  0.22428213    -0.89800
H1544       H  0.29333034  0.90442005  0.20030407     0.17900
H1545       H  0.17660927  0.93399440  0.20396962     0.17900
N1546       N  0.18439571  0.87479394  0.18288674    -0.88900
H1547       H  0.29905802  0.96741999  0.20398822     0.35200
H1548       H  0.29893917  0.94764564  0.24206655     0.40300
H1549       H  0.18235613  0.85305013  0.19898284     0.39900
H1550       H  0.19001670  0.86816966  0.15973897     0.34800
C1551       C  0.19422321  0.54928033  0.23359439    -0.26900
C1552       C  0.20151954  0.04284105  0.26822414    -0.15000
C1553       C  0.18613180  0.06313256  0.28939745     0.35700
C1554       C  0.15662341  0.58023311  0.27813352    -0.26300
C1555       C  0.14248108  0.57357716  0.24832808    -0.15600
C1556       C  0.16306443  0.56080912  0.22454932     0.36700
N1557       N  0.15139128  0.55405563  0.19321995    -0.89800
H1558       H  0.20778464  0.53543330  0.21670015     0.17900
H1559       H  0.14305794  0.59339728  0.29547769     0.17900
N1560       N  0.19797232  0.06371717  0.32195055    -0.88900
H1561       H  0.15382374  0.52826998  0.19099014     0.35200
H1562       H  0.16634969  0.56718245  0.17579518     0.40300
H1563       H  0.17949407  0.05449155  0.33791748     0.39900
H1564       H  0.20228154  0.08886185  0.32591204     0.34800
C1565       C  0.14380458  0.99004738  0.33992203    -0.26900
C1566       C  0.15051582  0.99693369  0.30674330    -0.15000
C1567       C  0.12548087  0.99273796  0.28392845     0.35700
C1568       C  0.09552620  0.97911239  0.29455222    -0.26300
C1569       C  0.09221018  0.96441114  0.32653625    -0.15600
C1570       C  0.11608354  0.97106414  0.34981117     0.36700
N1571       N  0.11436999  0.95554868  0.38246436    -0.89800
H1572       H  0.16328818  0.99247989  0.35746269     0.17900
H1573       H  0.07655949  0.97620962  0.27664013     0.17900
N1574       N  0.13233526  0.99579531  0.24984943    -0.88900
H1575       H  0.11534359  0.97457276  0.39815509     0.35200
H1576       H  0.13508823  0.94030147  0.38686712     0.40300
H1577       H  0.11340280  0.00964303  0.23790615     0.39900
H1578       H  0.13135301  0.97184254  0.24168003     0.34800
C1579       C  0.15442165  0.85578631  0.28390525    -0.26900
C1580       C  0.18185182  0.83473399  0.28907793    -0.15000
C1581       C  0.21332186  0.84673752  0.27954786     0.35700
C1582       C  0.21732808  0.88113677  0.27131153    -0.26300
C1583       C  0.19008603  0.90274400  0.26939884    -0.15600
C1584       C  0.15842283  0.88971736  0.27387560     0.36700
N1585       N  0.13055016  0.91149919  0.27112131    -0.89800
H1586       H  0.12998638  0.84698430  0.29060127     0.17900
H1587       H  0.24194416  0.89122941  0.26812211     0.17900
N1588       N  0.24141362  0.82511864  0.27837606    -0.88900
H1589       H  0.11835551  0.90904688  0.29339530     0.35200
H1590       H  0.11485532  0.90321514  0.25350893     0.40300
H1591       H  0.23479844  0.79968811  0.28164355     0.39900
H1592       H  0.25744624  0.83017467  0.29708147     0.34800
C1593       C  0.21945039  0.90577831  0.40009088    -0.26900
C1594       C  0.22077623  0.93315293  0.41890601    -0.15000
C1595       C  0.22889077  0.96568074  0.40440890     0.35700
C1596       C  0.23071329  0.97074651  0.37086201    -0.26300
C1597       C  0.22881562  0.94346616  0.35206799    -0.15600
C1598       C  0.22386187  0.91066167  0.36662957     0.36700
N1599       N  0.22149107  0.88289290  0.34710572    -0.89800
H1600       H  0.21307098  0.88086444  0.41110729     0.17900
H1601       H  0.23377937  0.99613678  0.35933323     0.17900
N1602       N  0.23620155  0.99367173  0.42272961    -0.88900
H1603       H  0.21658761  0.86050611  0.36157077     0.35200
H1604       H  0.24454526  0.88000843  0.33669248     0.40300
H1605       H  0.23916690  0.98613229  0.44742445     0.39900
H1606       H  0.21602860  0.51120757  0.41804410     0.34800
C1607       C  0.34591470  0.78185908  0.50257641    -0.26900
C1608       C  0.33738375  0.79283796  0.47089187    -0.15000
C1609       C  0.35753927  0.81626947  0.45298617     0.35700
C1610       C  0.39045688  0.81841060  0.46183851    -0.26300
C1611       C  0.40149229  0.80366769  0.49250735    -0.15600
C1612       C  0.37662712  0.78763729  0.01543890     0.36700
N1613       N  0.38276852  0.77825883  0.04916717    -0.89800
H1614       H  0.32927181  0.76473851  0.01910682     0.17900
H1615       H  0.40615357  0.83557483  0.44696542     0.17900
N1616       N  0.34508615  0.83699913  0.42546358    -0.88900
H1617       H  0.37899121  0.75229053  0.05392331     0.35200
H1618       H  0.36589613  0.79071266  0.06279021     0.40300
H1619       H  0.33324678  0.82184267  0.40980913     0.39900
H1620       H  0.32708617  0.85262232  0.43391448     0.34800
C1621       C  0.26360541  0.68750413  0.01350522    -0.26900
C1622       C  0.29968088  0.69029847  0.50815348    -0.15000
C1623       C  0.32130472  0.66684396  0.52425435     0.35700
C1624       C  0.30675507  0.63900871  0.04167814    -0.26300
C1625       C  0.27256307  0.63413546  0.04523125    -0.15600
C1626       C  0.25107606  0.66064581  0.03348357     0.36700
N1627       N  0.21675378  0.66055887  0.04190383    -0.89800
H1628       H  0.24672849  0.70593849  0.00210346     0.17900
H1629       H  0.32407217  0.62181448  0.05428027     0.17900
N1630       N  0.35630474  0.67093217  0.52267835    -0.88900
H1631       H  0.20449187  0.68108602  0.02973002     0.35200
H1632       H  0.21499694  0.66361332  0.06662595     0.40300
H1633       H  0.36217030  0.69439254  0.53047411     0.39900
H1634       H  0.36426825  0.67077127  0.49878497     0.34800
C1635       C  0.21031574  0.78000892  0.40174665    -0.26900
C1636       C  0.20155464  0.75133596  0.38560829    -0.15000
C1637       C  0.19824178  0.72055518  0.40537624     0.35700
C1638       C  0.21381448  0.71733668  0.43594374    -0.26300
C1639       C  0.23369870  0.74404281  0.44457737    -0.15600
C1640       C  0.22565509  0.77634165  0.43179034     0.36700
N1641       N  0.23830888  0.80502172  0.44611881    -0.89800
H1642       H  0.20565026  0.80544433  0.39129398     0.17900
H1643       H  0.21613694  0.69257034  0.44902557     0.17900
N1644       N  0.18027105  0.69291210  0.39428041    -0.88900
H1645       H  0.25380279  0.81837042  0.42931078     0.35200
H1646       H  0.21846122  0.82056592  0.45035743     0.40300
H1647       H  0.16138857  0.68663792  0.41085094     0.39900
H1648       H  0.19588693  0.67214451  0.39452470     0.34800
C1649       C  0.29961522  0.01929142  0.34377694    -0.26900
C1650       C  0.30534867  0.99438934  0.37000161    -0.15000
C1651       C  0.30681485  0.96047550  0.36280696     0.35700
C1652       C  0.29637223  0.95221229  0.33227669    -0.26300
C1653       C  0.28133090  0.97691697  0.31065269    -0.15600
C1654       C  0.28743222  0.01093473  0.31422902     0.36700
N1655       N  0.27915963  0.03692085  0.28902897    -0.89800
H1656       H  0.29954411  0.54756740  0.34732515     0.17900
H1657       H  0.29395647  0.92583729  0.32826290     0.17900
N1658       N  0.31829969  0.93450638  0.38641830    -0.88900
H1659       H  0.28365716  0.06085681  0.29646616     0.35200
H1660       H  0.29491984  0.03428994  0.26954412     0.40300
H1661       H  0.29951010  0.91670753  0.39071590     0.39900
H1662       H  0.33822150  0.92262519  0.37647570     0.34800
C1663       C  0.35390579  0.61482223  0.42486745    -0.26900
C1664       C  0.32947159  0.59212982  0.43572039    -0.15000
C1665       C  0.30292456  0.60272040  0.45383253     0.35700
C1666       C  0.30112647  0.63670751  0.45975855    -0.26300
C1667       C  0.32594581  0.65984023  0.44902878    -0.15600
C1668       C  0.35230179  0.64837304  0.43125083     0.36700
N1669       N  0.37792675  0.67062139  0.41965695    -0.89800
H1670       H  0.37434948  0.60657750  0.41098605     0.17900
H1671       H  0.27939794  0.64519745  0.47131385     0.17900
N1672       N  0.27837676  0.57903002  0.46656276    -0.88900
H1673       H  0.37902485  0.67070525  0.39441689     0.35200
H1674       H  0.39963580  0.66002491  0.42915048     0.40300
H1675       H  0.26496792  0.57127721  0.44704885     0.39900
H1676       H  0.26162911  0.59070315  0.48095922     0.34800
C1677       C  0.26301904  0.67881353  0.39433417    -0.26900
C1678       C  0.26863159  0.71364015  0.39048524    -0.15000
C1679       C  0.27162877  0.73130729  0.35981522     0.35700
C1680       C  0.27263436  0.71282132  0.33328582    -0.26300
C1681       C  0.27369666  0.67751900  0.33819240    -0.15600
C1682       C  0.26710692  0.66008535  0.36821919     0.36700
N1683       N  0.26703058  0.62386319  0.37229843    -0.89800
H1684       H  0.25957358  0.66605836  0.41826700     0.17900
H1685       H  0.27679725  0.72569917  0.30936461     0.17900
N1686       N  0.27654775  0.76723707  0.35619687    -0.88900
H1687       H  0.26121231  0.61520044  0.39623879     0.35200
H1688       H  0.29096031  0.61578550  0.36824734     0.40300
H1689       H  0.27805764  0.77609540  0.33163257     0.39900
H1690       H  0.29927174  0.77239868  0.36645926     0.34800
C1691       C  0.41678647  0.74082068  0.39148906    -0.26900
C1692       C  0.43189318  0.72155092  0.41766220    -0.15000
C1693       C  0.42097168  0.72553226  0.44950752     0.35700
C1694       C  0.38971649  0.73782941  0.45324660    -0.26300
C1695       C  0.37216968  0.75278553  0.42653422    -0.15600
C1696       C  0.38772923  0.75842464  0.39638659     0.36700
N1697       N  0.37342031  0.78078598  0.37096326    -0.89800
H1698       H  0.42632649  0.74086337  0.36715248     0.17900
H1699       H  0.37858265  0.73392304  0.47694163     0.17900
N1700       N  0.44055535  0.71791791  0.47820071    -0.88900
H1701       H  0.37378258  0.80486032  0.37881323     0.35200
H1702       H  0.38877992  0.78276527  0.35070521     0.40300
H1703       H  0.46535617  0.71536018  0.47270956     0.39900
H1704       H  0.43167302  0.69583464  0.49092304     0.34800
C1705       C  0.46653023  0.84988169  0.10938682    -0.26900
C1706       C  0.47181656  0.82391321  0.08951326    -0.15000
C1707       C  0.47801559  0.79078166  0.10368614     0.35700
C1708       C  0.47442146  0.78389858  0.13696646    -0.26300
C1709       C  0.46836686  0.80975028  0.15665215    -0.15600
C1710       C  0.46462204  0.84297723  0.14280266     0.36700
N1711       N  0.45755610  0.86959799  0.16239687    -0.89800
H1712       H  0.46111806  0.87528498  0.09913107     0.17900
H1713       H  0.47652236  0.75810988  0.14755942     0.17900
N1714       N  0.48855558  0.76384612  0.08544518    -0.88900
H1715       H  0.43533634  0.88074393  0.15453684     0.35200
H1716       H  0.47617908  0.88764050  0.15883792     0.40300
H1717       H  0.49401712  0.77237588  0.06141625     0.39900
H1718       H  0.46974533  0.74590780  0.08572876     0.34800
C1719       C  0.36376716  0.76988961  0.23114958    -0.26900
C1720       C  0.38742096  0.76100994  0.20914297    -0.15000
C1721       C  0.37979397  0.76425314  0.17578513     0.35700
C1722       C  0.35377038  0.78489422  0.16491419    -0.26300
C1723       C  0.33302640  0.79903263  0.18696503    -0.15600
C1724       C  0.33572201  0.78748625  0.22030108     0.36700
N1725       N  0.31105022  0.79428756  0.24339522    -0.89800
H1726       H  0.36906128  0.76805433  0.25678577     0.17900
H1727       H  0.35165183  0.79148620  0.13906742     0.17900
N1728       N  0.40083188  0.75126606  0.15217028    -0.88900
H1729       H  0.30250050  0.77128940  0.25457325     0.35200
H1730       H  0.32196624  0.80745517  0.26129587     0.40300
H1731       H  0.42088943  0.73871246  0.16344294     0.39900
H1732       H  0.40992968  0.77168422  0.13708046     0.34800
C1733       C  0.46431002  0.87738268  0.23089382    -0.26900
C1734       C  0.43548581  0.85807176  0.23438323    -0.15000
C1735       C  0.40474639  0.87338405  0.23155184     0.35700
C1736       C  0.40314308  0.90782772  0.22317748    -0.26300
C1737       C  0.43208797  0.92694742  0.21834482    -0.15600
C1738       C  0.46282020  0.91215287  0.22544589     0.36700
N1739       N  0.49226018  0.93216403  0.22558564    -0.89800
H1740       H  0.48800865  0.86524223  0.23103568     0.17900
H1741       H  0.37918088  0.91864429  0.21783336     0.17900
N1742       N  0.37528314  0.85375031  0.23511505    -0.88900
H1743       H  0.01505325  0.91453726  0.22967600     0.35200
H1744       H  0.49007630  0.94783442  0.24431192     0.40300
H1745       H  0.36117348  0.86293137  0.25338505     0.39900
H1746       H  0.36209747  0.85768242  0.21338537     0.34800
C1747       C  0.46654111  0.87505121  0.30713574    -0.26900
C1748       C  0.00190752  0.88235580  0.30027690    -0.15000
C1749       C  0.02283067  0.85650414  0.28930990     0.35700
C1750       C  0.00960502  0.82597597  0.28173378    -0.26300
C1751       C  0.47400747  0.82136159  0.28526251    -0.15600
C1752       C  0.45437625  0.84319253  0.30164165     0.36700
N1753       N  0.42114496  0.83418457  0.30982862    -0.89800
H1754       H  0.45059870  0.89199072  0.31872609     0.17900
H1755       H  0.02502509  0.80890869  0.26965900     0.17900
N1756       N  0.05741969  0.85992623  0.28404247    -0.88900
H1757       H  0.40562707  0.85272083  0.29874506     0.35200
H1758       H  0.41869492  0.83469187  0.33490308     0.40300
H1759       H  0.06958894  0.86429525  0.30544380     0.39900
H1760       H  0.06186100  0.87834597  0.26490053     0.34800
C1761       C  0.03300229  0.79875425  0.17693465    -0.26900
C1762       C  0.51949351  0.77586511  0.19842925    -0.15000
C1763       C  0.52445606  0.74253723  0.19186266     0.35700
C1764       C  0.03851758  0.73314421  0.16061635    -0.26300
C1765       C  0.04759108  0.75983879  0.13712070    -0.15600
C1766       C  0.04594963  0.79307642  0.14654380     0.36700
N1767       N  0.05709298  0.82118640  0.12515373    -0.89800
H1768       H  0.02958078  0.82455750  0.18248498     0.17900
H1769       H  0.04306528  0.70712702  0.15706333     0.17900
N1770       N  0.51060734  0.71536924  0.21261740    -0.88900
H1771       H  0.03740825  0.83775579  0.12054036     0.35200
H1772       H  0.07534542  0.83374016  0.13715397     0.40300
H1773       H  0.49447025  0.70213142  0.19877419     0.39900
H1774       H  0.52968169  0.69911992  0.22058138     0.34800
C1775       C  0.41682802  0.73132935  0.29051297    -0.26900
C1776       C  0.42958085  0.72347955  0.26057504    -0.15000
C1777       C  0.41587220  0.69675383  0.24546627     0.35700
C1778       C  0.38480147  0.68518760  0.25494267    -0.26300
C1779       C  0.36840796  0.69897966  0.28036608    -0.15600
C1780       C  0.38583567  0.71902569  0.30045053     0.36700
N1781       N  0.37090139  0.73002763  0.32868914    -0.89800
H1782       H  0.42788110  0.75121316  0.30301703     0.17900
H1783       H  0.37246818  0.66762063  0.24059995     0.17900
N1784       N  0.43080371  0.68562168  0.21711817    -0.88900
H1785       H  0.36516596  0.70888069  0.34457849     0.35200
H1786       H  0.34906025  0.74258255  0.32187583     0.40300
H1787       H  0.41396602  0.68902333  0.19797826     0.39900
H1788       H  0.43508012  0.65974581  0.22162627     0.34800
C1789       C  0.09553191  0.63313191  0.02781578    -0.26900
C1790       C  0.09615526  0.60747168  0.05357188    -0.15000
C1791       C  0.10938640  0.61612356  0.08340785     0.35700
C1792       C  0.10651986  0.64897595  0.09107404    -0.26300
C1793       C  0.09640523  0.67388797  0.06753009    -0.15600
C1794       C  0.09452802  0.66680937  0.03474023     0.36700
N1795       N  0.08775676  0.69240487  0.00890745    -0.89800
H1796       H  0.09131740  0.62734116  0.00314722     0.17900
H1797       H  0.11255288  0.65497897  0.11534589     0.17900
N1798       N  0.12823091  0.59309283  0.10457678    -0.88900
H1799       H  0.10702575  0.70981163  0.00752033     0.35200
H1800       H  0.06609856  0.70470946  0.01433418     0.40300
H1801       H  0.11840092  0.59247033  0.12795685     0.39900
H1802       H  0.15204666  0.60280063  0.10568169     0.34800
C1803       C  0.03423830  0.58382169  0.15828287    -0.26900
C1804       C  0.04960982  0.55843374  0.17790950    -0.15000
C1805       C  0.04766702  0.52472207  0.17147780     0.35700
C1806       C  0.03556404  0.51776484  0.14145167    -0.26300
C1807       C  0.02558593  0.54454351  0.11917520    -0.15600
C1808       C  0.02112227  0.57678076  0.12917527     0.36700
N1809       N  0.00592202  0.60317966  0.10886469    -0.89800
H1810       H  0.03292748  0.60931613  0.16535954     0.17900
H1811       H  0.03808790  0.49257940  0.13396115     0.17900
N1812       N  0.05892245  0.49825171  0.19470771    -0.88900
H1813       H  0.48560660  0.60903729  0.12270470     0.35200
H1814       H  0.02208000  0.62373591  0.10706339     0.40300
H1815       H  0.07723079  0.48478958  0.18397983     0.39900
H1816       H  0.03922597  0.48184399  0.20023333     0.34800
C1817       C  0.14361058  0.52902456  0.04733123    -0.26900
C1818       C  0.12495670  0.51756024  0.07460241    -0.15000
C1819       C  0.13959539  0.51509446  0.10553498     0.35700
C1820       C  0.17010258  0.53028602  0.10906069    -0.26300
C1821       C  0.18684681  0.54567249  0.08180435    -0.15600
C1822       C  0.17565712  0.53990861  0.05059893     0.36700
N1823       N  0.19630336  0.54570604  0.02246795    -0.89800
H1824       H  0.13260097  0.53209508  0.02350796     0.17900
H1825       H  0.17907205  0.53198004  0.13337265     0.17900
N1826       N  0.12278201  0.50047471  0.13392518    -0.88900
H1827       H  0.18390941  0.53968927  0.00161174     0.35200
H1828       H  0.21609725  0.52904227  0.02572550     0.40300
H1829       H  0.10138120  0.48815649  0.12755660     0.39900
H1830       H  0.11578849  0.52017277  0.14731990     0.34800
C1831       C  0.45439900  0.53923978  0.10481905    -0.26900
C1832       C  0.45982315  0.50753376  0.12227155    -0.15000
C1833       C  0.46912450  0.98290919  0.10436982     0.35700
C1834       C  0.98330872  0.48973144  0.07366377    -0.26300
C1835       C  0.98706896  0.52319228  0.06230261    -0.15600
C1836       C  0.96584932  0.54668575  0.07421851     0.36700
N1837       N  0.95978980  0.57870011  0.05645281    -0.89800
H1838       H  0.44082074  0.55867955  0.11556519     0.17900
H1839       H  0.99620845  0.97230550  0.06052939     0.17900
N1840       N  0.46844693  0.94761501  0.11478397    -0.88900
H1841       H  0.97010826  0.57898148  0.03332116     0.35200
H1842       H  0.93442174  0.58078591  0.05289114     0.40300
H1843       H  0.44590208  0.94006698  0.12484835     0.39900
H1844       H  0.48866012  0.94091657  0.12953105     0.34800
C1845       C  0.02475791  0.57732132  0.47476231    -0.26900
C1846       C  0.03903734  0.58879207  0.00432869    -0.15000
C1847       C  0.02605073  0.61924877  0.01373376     0.35700
C1848       C  0.00806664  0.64126523  0.49094368    -0.26300
C1849       C  0.00448732  0.63271928  0.45942701    -0.15600
C1850       C  0.00613788  0.59850610  0.45361956     0.36700
N1851       N  0.98893908  0.58568595  0.42694025    -0.89800
H1852       H  0.02999197  0.55243062  0.46816464     0.17900
H1853       H  0.00641753  0.66726880  0.99657067     0.17900
N1854       N  0.02399401  0.62614987  0.04677300    -0.88900
H1855       H  0.99248257  0.55970812  0.42697287     0.35200
H1856       H  0.96382711  0.58931741  0.43048417     0.40300
H1857       H  0.03486136  0.64946782  0.04923338     0.39900
H1858       H  0.99912955  0.62969501  0.05152791     0.34800
C1859       C  0.10574775  0.95747272  0.05179211    -0.26900
C1860       C  0.08774322  0.47985190  0.02879682    -0.15000
C1861       C  0.09857940  0.48698361  0.99665535     0.35700
C1862       C  0.12647490  0.97199374  0.48935256    -0.26300
C1863       C  0.14996144  0.95901072  0.01219430    -0.15600
C1864       C  0.13807140  0.94999322  0.04419882     0.36700
N1865       N  0.15792737  0.93337981  0.06952767    -0.89800
H1866       H  0.09776651  0.95175025  0.07670985     0.17900
H1867       H  0.13181185  0.97498441  0.46378755     0.17900
N1868       N  0.07927589  0.50527266  0.47276192    -0.88900
H1869       H  0.17779472  0.94895413  0.07390537     0.35200
H1870       H  0.16634622  0.91038022  0.06273464     0.40300
H1871       H  0.07923983  0.53021629  0.47823405     0.39900
H1872       H  0.05550368  0.49545581  0.47191810     0.34800
C1873       C  0.04307630  0.52903923  0.53250823     0.44900
H1874       H  0.02955982  0.51826511  0.51273013    -0.04100
C1875       C  0.07360374  0.55180328  0.58064924     0.44900
H1876       H  0.08456511  0.55944354  0.60305732    -0.04100
C1877       C  0.05624709  0.56553371  0.52546404    -0.17800
C1878       C  0.02131182  0.53247516  0.56117459    -0.17600
C1879       C  0.07237246  0.50737006  0.54560619    -0.18000
C1880       C  0.07558371  0.57640801  0.55022432    -0.17900
C1881       C  0.03765988  0.54396781  0.58652366    -0.17500
C1882       C  0.08878483  0.52052779  0.57047305    -0.17800
C1883       C  0.47452098  0.77029959  0.74591003     0.44900
H1884       H  0.49274362  0.75645364  0.76212269    -0.04100
C1885       C  0.43209041  0.80287756  0.70746921     0.44900
H1886       H  0.41392341  0.81701857  0.69129589    -0.04100
C1887       C  0.48737470  0.78155899  0.71104364    -0.17800
C1888       C  0.44264167  0.75048317  0.74083953    -0.17600
C1889       C  0.46184024  0.80304669  0.75833119    -0.18000
C1890       C  0.46410845  0.79792338  0.69138280    -0.17900
C1891       C  0.42112912  0.76788513  0.71974555    -0.17500
C1892       C  0.44046831  0.82025610  0.73714242    -0.17800
C1893       C  0.00215060  0.66049920  0.93276497     0.85900
C1894       C  0.02018355  0.69360021  0.93482954    -0.54300
C1895       C  0.01075590  0.71847172  0.91196347     0.08800
C1896       C  0.48304271  0.70546349  0.88864548     0.19800
C1897       C  0.46160859  0.66985609  0.93352337    -0.55000
C1898       C  0.45464333  0.69652013  0.91136957     0.08900
C1899       C  0.01173130  0.65158509  0.89956304    -0.54600
C1900       C  0.49382439  0.66952058  0.87703049     0.09500
H1901       H  0.03719317  0.69778356  0.95432083     0.14000
H1902       H  0.47755067  0.72476547  0.86827246    -0.00200
H1903       H  0.44453315  0.65993966  0.95215309     0.14300
H1904       H  0.02532549  0.62878501  0.89613412     0.14100
C1905       C  0.28882929  0.66738481  0.75565592     0.85900
C1906       C  0.31298184  0.69656266  0.75960239    -0.54300
C1907       C  0.33279669  0.69223905  0.78631683     0.08800
C1908       C  0.32384364  0.66156399  0.80906436     0.19800
C1909       C  0.31257130  0.63538238  0.75974562    -0.55000
C1910       C  0.33161166  0.63334300  0.78863751     0.08900
C1911       C  0.26865312  0.66288922  0.78619292    -0.54600
C1912       C  0.28640829  0.66156060  0.81352238     0.09500
H1913       H  0.31934433  0.71448210  0.73909560     0.14000
H1914       H  0.33740902  0.66011503  0.83251839    -0.00200
H1915       H  0.31568365  0.61826060  0.74115899     0.14300
H1916       H  0.24215689  0.66631286  0.78673849     0.14100
C1917       C  0.32334345  0.50645785  0.89848616     0.85900
C1918       C  0.32019719  0.98888005  0.93259445    -0.54300
C1919       C  0.34097891  0.00205363  0.95487633     0.08800
C1920       C  0.36126905  0.53560614  0.93746124     0.19800
C1921       C  0.31330768  0.54316191  0.90429947    -0.55000
C1922       C  0.33301042  0.55785908  0.92528129     0.08900
C1923       C  0.35992278  0.50337625  0.89244245    -0.54600
C1924       C  0.37779919  0.52818041  0.90291027     0.09500
H1925       H  0.30382654  0.96758365  0.93846332     0.14000
H1926       H  0.37822900  0.54770969  0.95391666    -0.00200
H1927       H  0.29178743  0.55591925  0.89358804     0.14300
H1928       H  0.36650207  0.98839118  0.87217764     0.14100
O1929       O  0.39461365  0.53921356  0.75206982    -0.81500
O1930       O  0.44725434  0.63464278  0.85665500    -0.66200
O1931       O  0.42277545  0.57282809  0.79493546    -1.12800
C1932       C  0.00769159  0.50115551  0.83891546     1.05400
O1933       O  0.49960928  0.62423614  0.84395797    -0.79400
O1934       O  0.03221790  0.57543708  0.81374777    -0.66900
Ni1935     Ni  0.38777512  0.54270758  0.79753659     1.34900
C1936       C  0.02265776  0.58239538  0.78477076     0.84200
O1937       O  0.38577905  0.62221321  0.81593428    -0.79900
O1938       O  0.35962207  0.58124498  0.78937983    -0.90200
C1939       C  0.47831353  0.64321910  0.85622014     0.83700
O1940       O  0.38039685  0.54035811  0.84388691    -0.68400
O1941       O  0.01348436  0.52304068  0.85962482    -0.87700
C1942       C  0.38971797  0.55056273  0.87094699     0.84600
C1943       C  0.36108880  0.61110633  0.79850692     1.06100
H1944       H  0.45649560  0.55013603  0.85390130     0.37900
O1945       O  0.46453033  0.56696486  0.83749005    -1.10300
O1946       O  0.49179898  0.57925302  0.77646179    -0.67000
Ni1947     Ni  0.46025590  0.54564618  0.79862627     1.26300
O1948       O  0.40866498  0.57620089  0.86962627    -0.67200
O1949       O  0.49478658  0.01068286  0.80990118    -0.79500
C1950       C  0.42115721  0.52889420  0.73968118     0.83900
O1951       O  0.44913162  0.52737913  0.75586876    -0.66700
Ni1952     Ni  0.00723191  0.57325745  0.85280070     1.27400
Ni1953     Ni  0.42908533  0.59977107  0.82932369     1.26100
H1954       H  0.42310198  0.58703486  0.77462175     0.38500
C1955       C  0.31824441  0.72257606  0.92026180     0.44900
H1956       H  0.32878430  0.71347642  0.89799163    -0.04100
C1957       C  0.29128991  0.74601486  0.97011180     0.44900
H1958       H  0.27958314  0.75616721  0.99134094    -0.04100
C1959       C  0.31929082  0.69730103  0.95026267    -0.17800
C1960       C  0.33450995  0.75429880  0.92951959    -0.17600
C1961       C  0.28233020  0.73040324  0.91646950    -0.18000
C1962       C  0.30636051  0.71050224  0.97722158    -0.17900
C1963       C  0.31909352  0.76809061  0.95464114    -0.17500
C1964       C  0.26736622  0.74115832  0.94291295    -0.17800
C1965       C  0.17702474  0.93752563  0.50042023     0.85900
C1966       C  0.20947268  0.93309463  0.51875867    -0.54300
C1967       C  0.23223903  0.91346577  0.50459815     0.08800
C1968       C  0.21642985  0.89770003  0.97282767     0.19800
C1969       C  0.18803024  0.95068892  0.96370967    -0.55000
C1970       C  0.20833981  0.92882591  0.95035489     0.08900
C1971       C  0.16365159  0.90263247  0.49994266    -0.54600
C1972       C  0.18067790  0.88299524  0.98223726     0.09500
H1973       H  0.21582266  0.94894977  0.53773858     0.14000
H1974       H  0.23300247  0.87957169  0.96239296    -0.00200
H1975       H  0.18117985  0.97440397  0.95051619     0.14300
H1976       H  0.13839297  0.89726261  0.50783835     0.14100
C1977       C  0.18354600  0.76046428  0.85189749     0.85900
C1978       C  0.18175804  0.73641869  0.82497205    -0.54300
C1979       C  0.16224873  0.74900703  0.79909867     0.08800
C1980       C  0.14559970  0.78418654  0.80517938     0.19800
C1981       C  0.19585671  0.79368985  0.83243636    -0.55000
C1982       C  0.17580247  0.80541969  0.80756707     0.08900
C1983       C  0.14805020  0.76418131  0.86148767    -0.54600
C1984       C  0.13081406  0.78449366  0.84079019     0.09500
H1985       H  0.19699766  0.71415683  0.82458003     0.14000
H1986       H  0.12829304  0.79334001  0.78554092    -0.00200
H1987       H  0.21857391  0.80640761  0.83760496     0.14300
H1988       H  0.14050890  0.75999890  0.88687324     0.14100
C1989       C  0.01627047  0.91109205  0.82056757     0.85900
C1990       C  0.49676231  0.94195520  0.82605131    -0.54300
C1991       C  0.01298690  0.96411378  0.84560539     0.08800
C1992       C  0.04420884  0.94495494  0.86366452     0.19800
C1993       C  0.05140141  0.92409445  0.81208111    -0.55000
C1994       C  0.06584871  0.94258885  0.83453583     0.08900
C1995       C  0.01541971  0.89434134  0.85456981    -0.54600
C1996       C  0.03645865  0.90579476  0.87556738     0.09500
H1997       H  0.47655020  0.95026434  0.81007758     0.14000
H1998       H  0.05446308  0.95922995  0.88301594     0.02600
H1999       H  0.06042453  0.92530467  0.78754046     0.14300
H2000       H  0.00305077  0.87009399  0.85926630     0.14100
O2001       O  0.01797255  0.77839740  0.89617021    -0.81500
O2002       O  0.14520864  0.86494823  0.93713605    -0.66200
O2003       O  0.08083395  0.79717456  0.91761630    -1.12800
C2004       C  0.01713373  0.84416409  0.49688616     1.05400
O2005       O  0.13622702  0.84478003  0.98816519    -0.79400
O2006       O  0.08633135  0.81686748  0.52373158    -0.66900
Ni2007     Ni  0.05538559  0.80365846  0.87804355     1.34900
C2008       C  0.08668668  0.78589860  0.51983817     0.84200
O2009       O  0.13522035  0.82285290  0.88421286    -0.79900
O2010       O  0.09076251  0.82579706  0.85442324    -0.90200
C2011       C  0.15488200  0.86110103  0.96719708     0.83700
O2012       O  0.04042186  0.84589230  0.89308106    -0.68400
O2013       O  0.04142538  0.86464400  0.50131745    -0.87700
C2014       C  0.05626344  0.87415740  0.89023655     0.84600
C2015       C  0.11955395  0.81465998  0.85860244     1.06100
H2016       H  0.06485058  0.85953514  0.94856099     0.37900
O2017       O  0.07928112  0.84161749  0.95669196    -1.10300
O2018       O  0.08028304  0.77584508  0.99116584    -0.67000
Ni2019     Ni  0.05373817  0.80229467  0.95505911     1.26300
O2020       O  0.08737911  0.87323409  0.89641141    -0.67200
O2021       O  0.02298182  0.81476907  0.98796917    -0.79500
C2022       C  0.01968437  0.75449485  0.91874572     0.83900
O2023       O  0.03037117  0.76078300  0.94709413    -0.66700
Ni2024     Ni  0.08949840  0.85623436  0.49516620     1.27400
Ni2025     Ni  0.11039184  0.83442472  0.92257098     1.26100
H2026       H  0.09222706  0.77583051  0.91970411     0.38500
C2027       C  0.26122654  0.60648028  0.56881366     0.85900
C2028       C  0.28185321  0.57447809  0.57438576    -0.54300
C2029       C  0.26879912  0.55033211  0.59630522     0.08800
C2030       C  0.23778327  0.56410238  0.61443741     0.19800
C2031       C  0.22667913  0.59283166  0.56165603    -0.55000
C2032       C  0.21495765  0.56934834  0.58530791     0.08900
C2033       C  0.25909782  0.62075627  0.60092839    -0.54600
C2034       C  0.24363931  0.60160531  0.62454429     0.09500
H2035       H  0.30105485  0.56877915  0.55759152     0.14000
H2036       H  0.22993424  0.54612543  0.63500088    -0.00200
H2037       H  0.21398518  0.59967266  0.53899435     0.14300
H2038       H  0.26480187  0.64724647  0.60300343     0.14100
C2039       C  0.05006289  0.58869005  0.75849100     0.85900
C2040       C  0.08463806  0.57514842  0.76928552    -0.54300
C2041       C  0.10742448  0.57596248  0.74439513     0.08800
C2042       C  0.09284785  0.58774163  0.71136476     0.19800
C2043       C  0.05949753  0.62464458  0.74038398    -0.55000
C2044       C  0.08367151  0.62345036  0.71601755     0.08900
C2045       C  0.04027679  0.56724152  0.73240823    -0.54600
C2046       C  0.06177215  0.56696570  0.70845760     0.09500
H2047       H  0.09092842  0.56763966  0.79443462     0.14000
H2048       H  0.10783649  0.58731827  0.68942694    -0.00200
H2049       H  0.05221545  0.64798025  0.74973528     0.14300
H2050       H  0.01650975  0.55479576  0.73111418     0.14100
C2051       C  0.07072100  0.75394826  0.60884148     0.85900
C2052       C  0.06664274  0.77328570  0.57577692    -0.54300
C2053       C  0.08903962  0.76450148  0.55290227     0.08800
C2054       C  0.11433297  0.73558939  0.56874676     0.19800
C2055       C  0.06777828  0.71641630  0.60023089    -0.55000
C2056       C  0.09037420  0.70814093  0.57799579     0.08900
C2057       C  0.10630004  0.76306145  0.61605740    -0.54600
C2058       C  0.12781633  0.74212160  0.60457267     0.09500
H2059       H  0.04826046  0.79280057  0.57081700     0.14000
H2060       H  0.13390892  0.72858506  0.55204063    -0.00200
H2061       H  0.04889072  0.69867135  0.60913003     0.14300
H2062       H  0.11212272  0.77551152  0.63772395     0.14100
O2063       O  0.13974231  0.72445436  0.75308675    -0.81500
O2064       O  0.19662611  0.63379157  0.64608887    -0.66200
O2065       O  0.16938469  0.69271064  0.70952183    -1.12800
C2066       C  0.25575267  0.76215455  0.67017220     1.05400
O2067       O  0.24799867  0.64104926  0.66368368    -0.79400
O2068       O  0.27853273  0.68505457  0.69865976    -0.66900
Ni2069     Ni  0.13227231  0.72003370  0.70755842     1.34900
C2070       C  0.26581591  0.67896218  0.72655785     0.84200
O2071       O  0.13463564  0.64247953  0.68602660    -0.79900
O2072       O  0.10645706  0.67927602  0.71555031    -0.90200
C2073       C  0.22740798  0.62445914  0.64778369     0.83700
O2074       O  0.12318025  0.72100934  0.66176024    -0.68400
O2075       O  0.26436469  0.73961587  0.65123503    -0.87700
C2076       C  0.13803941  0.71698543  0.63514663     0.84600
C2077       C  0.10950105  0.65030816  0.70451177     1.06100
H2078       H  0.20745827  0.71602762  0.65196346     0.37900
O2079       O  0.21374610  0.69908059  0.66904629    -1.10300
O2080       O  0.23562601  0.68744053  0.73171787    -0.67000
Ni2081     Ni  0.20648943  0.72080077  0.70723106     1.26300
O2082       O  0.15958113  0.69382345  0.63561513    -0.67200
O2083       O  0.24236039  0.75320167  0.69811842    -0.79500
C2084       C  0.16567771  0.73682764  0.76523081     0.83900
O2085       O  0.19349916  0.73964173  0.74906958    -0.66700
Ni2086     Ni  0.25675150  0.68976764  0.65720723     1.27400
Ni2087     Ni  0.17780540  0.66666358  0.67494730     1.26100
H2088       H  0.16998042  0.67801975  0.72953039     0.38500
C2089       C  0.23356447  0.98796236  0.76468625     0.44900
H2090       H  0.25106447  0.00295206  0.74879366    -0.04100
C2091       C  0.19113394  0.95386175  0.80122407     0.44900
H2092       H  0.17286370  0.93911999  0.81680762    -0.04100
C2093       C  0.24844294  0.96967921  0.79597277    -0.17800
C2094       C  0.20617434  0.00961239  0.77715535    -0.17600
C2095       C  0.21561844  0.96014245  0.74793227    -0.18000
C2096       C  0.22514967  0.95233994  0.81505576    -0.17900
C2097       C  0.18341495  0.99099569  0.79561746    -0.17500
C2098       C  0.19450622  0.94154911  0.76835576    -0.17800
C2099       C  0.44112509  0.50319788  0.65463582     0.85900
C2100       C  0.43806562  0.52845061  0.68044507    -0.54300
C2101       C  0.41785723  0.51682328  0.70589530     0.08800
C2102       C  0.40092114  0.97996844  0.70061642     0.19800
C2103       C  0.45212826  0.96991536  0.67508033    -0.55000
C2104       C  0.43100913  0.95840423  0.69909463     0.08900
C2105       C  0.40619894  0.49805648  0.64347829    -0.54600
C2106       C  0.38642147  0.97889690  0.66532145     0.09500
H2107       H  0.45367850  0.55053245  0.68088593     0.14000
H2108       H  0.38328157  0.97171733  0.72018200    -0.00200
H2109       H  0.47569422  0.95856511  0.67201895     0.14300
H2110       H  0.39990985  0.50032734  0.61768289     0.14100
C2111       C  0.25730261  0.85588320  0.67988250     0.85900
C2112       C  0.24144665  0.82148502  0.67821646    -0.54300
C2113       C  0.25951501  0.80051375  0.66008349     0.08800
C2114       C  0.29134943  0.82016608  0.64375657     0.19800
C2115       C  0.29260710  0.84580809  0.69281479    -0.55000
C2116       C  0.30948171  0.82475820  0.67476055     0.08900
C2117       C  0.25770312  0.86869139  0.64446706    -0.54600
C2118       C  0.28359879  0.85869512  0.62872907     0.09500
H2119       H  0.22118979  0.81265627  0.69376486     0.14000
H2120       H  0.30381252  0.80553234  0.62605619    -0.00200
H2121       H  0.30090069  0.85161531  0.71653359     0.14300
H2122       H  0.24413219  0.89144228  0.63604852     0.14100
C2123       C  0.42881052  0.82285635  0.50712027     0.85900
C2124       C  0.45835020  0.83533813  0.98777845    -0.54300
C2125       C  0.48123060  0.85361582  0.50316059     0.08800
C2126       C  0.46607086  0.86375289  0.53630937     0.19800
C2127       C  0.44404777  0.80698967  0.53880435    -0.55000
C2128       C  0.46262916  0.82866217  0.55474771     0.08900
C2129       C  0.41165232  0.85401956  0.51524027    -0.54600
C2130       C  0.42867848  0.87549738  0.53120831     0.09500
H2131       H  0.46448427  0.82306774  0.96626029     0.14000
H2132       H  0.48163485  0.88168956  0.54847817    -0.00200
H2133       H  0.44026851  0.78107530  0.54811132     0.14300
H2134       H  0.38505335  0.85907739  0.01078008     0.14100
O2135       O  0.27177499  0.48974151  0.61203118    -0.81500
O2136       O  0.39366659  0.89645222  0.57357525    -0.66200
O2137       O  0.33334828  0.96743759  0.59167521    -1.12800
C2138       C  0.26932577  0.92363996  0.00808956     1.05400
O2139       O  0.38771443  0.91707821  0.52230876    -0.79400
O2140       O  0.34126967  0.94972804  0.98491773    -0.66900
Ni2141     Ni  0.30866449  0.96292091  0.63181074     1.34900
C2142       C  0.34028777  0.98087301  0.98846233     0.84200
O2143       O  0.38665848  0.93826255  0.62480744    -0.79900
O2144       O  0.34320568  0.93935590  0.65529803    -0.90200
C2145       C  0.40481831  0.90006353  0.54423840     0.83700
O2146       O  0.29071547  0.92018610  0.61994052    -0.68400
O2147       O  0.29325063  0.90282616  0.00390893    -0.87700
C2148       C  0.30514862  0.89120742  0.61932550     0.84600
C2149       C  0.37243912  0.94859511  0.64992999     1.06100
H2150       H  0.31451523  0.90594257  0.56033357     0.37900
O2151       O  0.32973948  0.92329750  0.55244807    -1.10300
O2152       O  0.33219609  0.99019111  0.51775662    -0.67000
Ni2153     Ni  0.30569390  0.96359244  0.55409658     1.26300
O2154       O  0.33601478  0.89102710  0.61243048    -0.67200
O2155       O  0.27404930  0.95156848  0.52136716    -0.79500
C2156       C  0.27476143  0.51359013  0.58939586     0.83900
O2157       O  0.28401023  0.50640618  0.56093575    -0.66700
Ni2158     Ni  0.34099980  0.90839307  0.51340023     1.27400
Ni2159     Ni  0.36086365  0.92875904  0.58690692     1.26100
H2160       H  0.34594330  0.98811097  0.58933051     0.38500
C2161       C  0.26795229  0.91012352  0.70273494    -0.26900
C2162       C  0.24420124  0.88533006  0.69641002    -0.15000
C2163       C  0.21105974  0.89613259  0.69328409     0.35700
C2164       C  0.20271748  0.92826423  0.70153704    -0.26300
C2165       C  0.22593044  0.94737804  0.71725455    -0.15600
C2166       C  0.25917103  0.94068059  0.71334160     0.36700
N2167       N  0.28419035  0.96372602  0.72157028    -0.89800
H2168       H  0.29394772  0.90648287  0.69913599     0.17900
H2169       H  0.17691894  0.93485956  0.70226260     0.17900
N2170       N  0.18528625  0.87487816  0.68332479    -0.88900
H2171       H  0.29849279  0.97008990  0.70092623     0.35200
H2172       H  0.29928027  0.95140201  0.73942506     0.40300
H2173       H  0.18368605  0.85367321  0.70016301     0.39900
H2174       H  0.19072842  0.86741744  0.66044666     0.34800
C2175       C  0.19558522  0.54850520  0.73488366    -0.26900
C2176       C  0.20112904  0.04485616  0.76471616    -0.15000
C2177       C  0.18682968  0.06645835  0.78536003     0.35700
C2178       C  0.15718114  0.57843043  0.77950931    -0.26300
C2179       C  0.14349059  0.57241417  0.74930009    -0.15600
C2180       C  0.16467088  0.56060611  0.72548165     0.36700
N2181       N  0.15391676  0.55564638  0.69339799    -0.89800
H2182       H  0.20944383  0.53511899  0.71785747     0.17900
H2183       H  0.14328692  0.59107791  0.79699196     0.17900
N2184       N  0.20013319  0.06878496  0.81711005    -0.88900
H2185       H  0.15597162  0.53005379  0.69011302     0.35200
H2186       H  0.16962108  0.56919162  0.67695484     0.40300
H2187       H  0.18225383  0.06066604  0.83420101     0.39900
H2188       H  0.20500196  0.09420636  0.81946567     0.34800
C2189       C  0.14396936  0.99429830  0.83839767    -0.26900
C2190       C  0.15030640  0.00046930  0.80504995    -0.15000
C2191       C  0.12491472  0.99565290  0.78280330     0.35700
C2192       C  0.09535871  0.98149670  0.79403757    -0.26300
C2193       C  0.09263590  0.96713731  0.82620575    -0.15600
C2194       C  0.11650212  0.97512283  0.84905523     0.36700
N2195       N  0.11497507  0.96100629  0.88218368    -0.89800
H2196       H  0.16356189  0.99757062  0.85561783     0.17900
H2197       H  0.07624802  0.97798831  0.77643384     0.17900
N2198       N  0.13110019  0.99862614  0.74862217    -0.88900
H2199       H  0.11551619  0.98083537  0.89697728     0.35200
H2200       H  0.13598818  0.94636009  0.88723489     0.40300
H2201       H  0.11181300  0.01222749  0.73702570     0.39900
H2202       H  0.13024856  0.97462345  0.74055745     0.34800
C2203       C  0.15320995  0.85833586  0.78233992    -0.26900
C2204       C  0.18059960  0.83723001  0.78743502    -0.15000
C2205       C  0.21207101  0.84921837  0.77785843     0.35700
C2206       C  0.21612835  0.88360677  0.76967167    -0.26300
C2207       C  0.18894270  0.90527084  0.76767616    -0.15600
C2208       C  0.15727570  0.89229689  0.77231772     0.36700
N2209       N  0.12951019  0.91419652  0.76987599    -0.89800
H2210       H  0.12880968  0.84952091  0.78914158     0.17900
H2211       H  0.24076607  0.89364149  0.76649326     0.17900
N2212       N  0.24014871  0.82759862  0.77661132    -0.88900
H2213       H  0.11758158  0.91165600  0.79227899     0.35200
H2214       H  0.11363958  0.90611179  0.75231777     0.40300
H2215       H  0.23353126  0.80217165  0.77990121     0.39900
H2216       H  0.25625669  0.83265980  0.79525525     0.34800
C2217       C  0.21766875  0.90700745  0.89803581    -0.26900
C2218       C  0.21984084  0.93422457  0.91698033    -0.15000
C2219       C  0.22828227  0.96668120  0.90259123     0.35700
C2220       C  0.22966401  0.97195839  0.86909810    -0.26300
C2221       C  0.22719729  0.94486960  0.85017900    -0.15600
C2222       C  0.22188526  0.91204082  0.86455006     0.36700
N2223       N  0.21927124  0.88442342  0.84489040    -0.89800
H2224       H  0.21105478  0.88215071  0.90903635     0.17900
H2225       H  0.23305222  0.99736110  0.85770845     0.17900
N2226       N  0.23641212  0.99439576  0.92097650    -0.88900
H2227       H  0.21395412  0.86209046  0.85924724     0.35200
H2228       H  0.24238628  0.88122887  0.83471449     0.40300
H2229       H  0.23961140  0.98667150  0.94560276     0.39900
H2230       H  0.22027512  0.51092636  0.91846699     0.34800
C2231       C  0.34535879  0.78129632  0.00404290    -0.26900
C2232       C  0.33650692  0.79261492  0.97251695    -0.15000
C2233       C  0.35636441  0.81645330  0.95473647     0.35700
C2234       C  0.38933750  0.81876844  0.96335899    -0.26300
C2235       C  0.40057848  0.80441341  0.99408148    -0.15600
C2236       C  0.37743576  0.78695267  0.51373749     0.36700
N2237       N  0.38386460  0.77611842  0.54713709    -0.89800
H2238       H  0.32955111  0.76584205  0.51784405     0.17900
H2239       H  0.40486311  0.83599687  0.94835543     0.17900
N2240       N  0.34359903  0.83731186  0.92743487    -0.88900
H2241       H  0.37951587  0.75017456  0.55101041     0.35200
H2242       H  0.36755937  0.78838461  0.56151514     0.40300
H2243       H  0.33193273  0.82225670  0.91157809     0.39900
H2244       H  0.32541889  0.85257660  0.93610951     0.34800
C2245       C  0.26614242  0.68865389  0.51485315    -0.26900
C2246       C  0.29705736  0.68946470  0.00640050    -0.15000
C2247       C  0.31918805  0.66673386  0.02268406     0.35700
C2248       C  0.30821853  0.63886774  0.54238868    -0.26300
C2249       C  0.27390636  0.63421223  0.54500450    -0.15600
C2250       C  0.25288475  0.66118225  0.53337505     0.36700
N2251       N  0.21822201  0.66091414  0.54030219    -0.89800
H2252       H  0.24959412  0.70756115  0.50376134     0.17900
H2253       H  0.32511083  0.62116697  0.55494486     0.17900
N2254       N  0.35407582  0.67150594  0.02066480    -0.88900
H2255       H  0.20638913  0.68172759  0.52813869     0.35200
H2256       H  0.21535837  0.66317804  0.56507177     0.40300
H2257       H  0.35956583  0.69528140  0.02796633     0.39900
H2258       H  0.36175186  0.67098943  0.99671054     0.34800
C2259       C  0.21008107  0.78311159  0.89993238    -0.26900
C2260       C  0.20072518  0.75428823  0.88429359    -0.15000
C2261       C  0.19653906  0.72397784  0.90466175     0.35700
C2262       C  0.21157819  0.72109495  0.93550651    -0.26300
C2263       C  0.23200834  0.74748580  0.94390135    -0.15600
C2264       C  0.22499254  0.77973333  0.93020339     0.36700
N2265       N  0.23840388  0.80844946  0.94388146    -0.89800
H2266       H  0.20608558  0.80848851  0.88907343     0.17900
H2267       H  0.21305450  0.69654370  0.94914205     0.17900
N2268       N  0.17814037  0.69644199  0.89389573    -0.88900
H2269       H  0.25444957  0.82082332  0.92696470     0.35200
H2270       H  0.21896899  0.82475365  0.94739178     0.40300
H2271       H  0.15885230  0.69104850  0.91020663     0.39900
H2272       H  0.19326566  0.67524569  0.89490919     0.34800
C2273       C  0.29963574  0.02008144  0.84318973    -0.26900
C2274       C  0.30521817  0.99516086  0.86940251    -0.15000
C2275       C  0.30586441  0.96118954  0.86231790     0.35700
C2276       C  0.29502836  0.95305482  0.83183182    -0.26300
C2277       C  0.28041481  0.97802307  0.81007720    -0.15600
C2278       C  0.28689577  0.01194975  0.81378585     0.36700
N2279       N  0.27834803  0.03816396  0.78891694    -0.89800
H2280       H  0.30680289  0.54574317  0.84405102     0.17900
H2281       H  0.29214601  0.92671045  0.82787851     0.17900
N2282       N  0.31686722  0.93504600  0.88601114    -0.88900
H2283       H  0.28281106  0.06201176  0.79657528     0.35200
H2284       H  0.29397187  0.03582706  0.76926962     0.40300
H2285       H  0.29767611  0.91774237  0.89048073     0.39900
H2286       H  0.33642604  0.92259705  0.87607088     0.34800
C2287       C  0.35190384  0.61635382  0.92059578    -0.26900
C2288       C  0.32894113  0.59268268  0.93296585    -0.15000
C2289       C  0.30270082  0.60253489  0.95183576     0.35700
C2290       C  0.29990584  0.63657195  0.95750850    -0.26300
C2291       C  0.32364257  0.66062379  0.94592420    -0.15600
C2292       C  0.34948120  0.64999410  0.92677305     0.36700
N2293       N  0.37382252  0.67306031  0.91359059    -0.89800
H2294       H  0.37197028  0.60877018  0.90589255     0.17900
H2295       H  0.27832734  0.64424251  0.96985732     0.17900
N2296       N  0.27942834  0.57798413  0.96555293    -0.88900
H2297       H  0.37335031  0.67305849  0.88833372     0.35200
H2298       H  0.39638080  0.66319401  0.92159511     0.40300
H2299       H  0.26607561  0.56918195  0.94648029     0.39900
H2300       H  0.26247698  0.58919104  0.98008946     0.34800
C2301       C  0.26011635  0.68234543  0.89398685    -0.26900
C2302       C  0.26644519  0.71706403  0.88963740    -0.15000
C2303       C  0.27069456  0.73404577  0.85880547     0.35700
C2304       C  0.27252250  0.71490230  0.83281183    -0.26300
C2305       C  0.27274095  0.67961792  0.83843061    -0.15600
C2306       C  0.26448502  0.66295038  0.86840330     0.36700
N2307       N  0.26293676  0.62676662  0.87305549    -0.89800
H2308       H  0.25616535  0.67006472  0.91809518     0.17900
H2309       H  0.27771487  0.72721038  0.80886855     0.17900
N2310       N  0.27619961  0.76988671  0.85462864    -0.88900
H2311       H  0.25612390  0.61874176  0.89689493     0.35200
H2312       H  0.28663241  0.61758704  0.86989985     0.40300
H2313       H  0.27867388  0.77819542  0.83000899     0.39900
H2314       H  0.29860407  0.77494715  0.86557832     0.34800
C2315       C  0.41549027  0.74217375  0.89231954    -0.26900
C2316       C  0.43011071  0.72214754  0.91825158    -0.15000
C2317       C  0.41872659  0.72515745  0.95016266     0.35700
C2318       C  0.38761998  0.73768922  0.95383233    -0.26300
C2319       C  0.37055154  0.75344500  0.92723157    -0.15600
C2320       C  0.38646546  0.75975813  0.89732341     0.36700
N2321       N  0.37263748  0.78290971  0.87227896    -0.89800
H2322       H  0.42536476  0.74277206  0.86805534     0.17900
H2323       H  0.37623254  0.73344704  0.97738457     0.17900
N2324       N  0.43769116  0.71630322  0.97904802    -0.88900
H2325       H  0.37329129  0.80671432  0.88071757     0.35200
H2326       H  0.38818531  0.78515700  0.85217407     0.40300
H2327       H  0.46257186  0.71375087  0.97394837     0.39900
H2328       H  0.42839936  0.69394625  0.99090748     0.34800
C2329       C  0.46442601  0.84682768  0.60909437    -0.26900
C2330       C  0.47088185  0.82125005  0.58909109    -0.15000
C2331       C  0.47728801  0.78806806  0.60313074     0.35700
C2332       C  0.47352369  0.78089976  0.63641273    -0.26300
C2333       C  0.46689167  0.80653371  0.65621883    -0.15600
C2334       C  0.46231509  0.83970695  0.64245310     0.36700
N2335       N  0.45452054  0.86613656  0.66206713    -0.89800
H2336       H  0.45864367  0.87218052  0.59894940     0.17900
H2337       H  0.47631546  0.75515022  0.64698563     0.17900
N2338       N  0.48843635  0.76141827  0.58483324    -0.88900
H2339       H  0.43200362  0.87661963  0.65423398     0.35200
H2340       H  0.47258435  0.88477288  0.65836284     0.40300
H2341       H  0.49401500  0.77012339  0.56088337     0.39900
H2342       H  0.46985408  0.74326429  0.58481163     0.34800
C2343       C  0.36386692  0.77119312  0.73387426    -0.26900
C2344       C  0.38691259  0.75997012  0.71242223    -0.15000
C2345       C  0.37889159  0.76154218  0.67918748     0.35700
C2346       C  0.35338590  0.78259718  0.66742285    -0.26300
C2347       C  0.33344542  0.79900289  0.68866003    -0.15600
C2348       C  0.33619439  0.78908133  0.72235255     0.36700
N2349       N  0.31201004  0.79782698  0.74515491    -0.89800
H2350       H  0.36955262  0.77115862  0.75929839     0.17900
H2351       H  0.35112590  0.78763647  0.64141866     0.17900
N2352       N  0.39931642  0.74650469  0.65631482    -0.88900
H2353       H  0.30299184  0.77554249  0.75741057     0.35200
H2354       H  0.32347393  0.81162614  0.76226225     0.40300
H2355       H  0.41904399  0.73381433  0.66808865     0.39900
H2356       H  0.40904892  0.76586755  0.64034280     0.34800
C2357       C  0.46638222  0.87628405  0.73050642    -0.26900
C2358       C  0.43762265  0.85685433  0.73419514    -0.15000
C2359       C  0.40683761  0.87205051  0.73123491     0.35700
C2360       C  0.40506108  0.90637131  0.72252792    -0.26300
C2361       C  0.43385406  0.92563543  0.71757241    -0.15600
C2362       C  0.46470199  0.91104484  0.72459702     0.36700
N2363       N  0.49402476  0.93125329  0.72441794    -0.89800
H2364       H  0.49015151  0.86425722  0.73093415     0.17900
H2365       H  0.38101939  0.91698454  0.71717232     0.17900
N2366       N  0.37742796  0.85242660  0.73506859    -0.88900
H2367       H  0.01451774  0.91739193  0.73013696     0.35200
H2368       H  0.49176308  0.94720312  0.74290946     0.40300
H2369       H  0.36338732  0.86182828  0.75326675     0.39900
H2370       H  0.36419586  0.85621140  0.71335656     0.34800
C2371       C  0.46907233  0.87348896  0.80711202    -0.26900
C2372       C  0.00292547  0.88389966  0.80034877    -0.15000
C2373       C  0.02378445  0.85795072  0.78956927     0.35700
C2374       C  0.01044916  0.82757610  0.78175071    -0.26300
C2375       C  0.47676921  0.82009858  0.78483808    -0.15600
C2376       C  0.45708035  0.84165395  0.80144150     0.36700
N2377       N  0.42394718  0.83237282  0.80974054    -0.89800
H2378       H  0.45295605  0.89031244  0.81864297     0.17900
H2379       H  0.02592623  0.81044554  0.76982437     0.17900
N2380       N  0.05843536  0.86115525  0.78473349    -0.88900
H2381       H  0.40826112  0.85082291  0.79877918     0.35200
H2382       H  0.42162907  0.83278725  0.83483678     0.40300
H2383       H  0.07030778  0.86565284  0.80624581     0.39900
H2384       H  0.06309994  0.87952619  0.76562013     0.34800
C2385       C  0.03644318  0.80139058  0.67778527    -0.26900
C2386       C  0.51973957  0.77423866  0.69720664    -0.15000
C2387       C  0.52628879  0.74105275  0.69131363     0.35700
C2388       C  0.04186195  0.73548822  0.66226355    -0.26300
C2389       C  0.05108113  0.76194505  0.63858576    -0.15600
C2390       C  0.05002302  0.79525501  0.64779954     0.36700
N2391       N  0.06210774  0.82298725  0.62650402    -0.89800
H2392       H  0.03307565  0.82729745  0.68302771     0.17900
H2393       H  0.04633837  0.70938816  0.65896028     0.17900
N2394       N  0.51509716  0.71377860  0.71357802    -0.88900
H2395       H  0.04279356  0.83991444  0.62134059     0.35200
H2396       H  0.08034240  0.83523753  0.63882093     0.40300
H2397       H  0.49957036  0.69857205  0.70105055     0.39900
H2398       H  0.53563074  0.69955415  0.72132218     0.34800
C2399       C  0.41582634  0.73300980  0.79229391    -0.26900
C2400       C  0.43010487  0.72311957  0.76376716    -0.15000
C2401       C  0.41732391  0.69514916  0.74997382     0.35700
C2402       C  0.38576049  0.68417802  0.75849485    -0.26300
C2403       C  0.36807509  0.69963949  0.78209776    -0.15600
C2404       C  0.38428249  0.72152267  0.80126746     0.36700
N2405       N  0.36737961  0.73567989  0.82683843    -0.89800
H2406       H  0.42603060  0.75407291  0.80371294     0.17900
H2407       H  0.37426443  0.66548970  0.74484560     0.17900
N2408       N  0.43415253  0.68157473  0.72386246    -0.88900
H2409       H  0.35971773  0.71607273  0.84371593     0.35200
H2410       H  0.34651920  0.74828703  0.81720381     0.40300
H2411       H  0.41871296  0.68351360  0.70355522     0.39900
H2412       H  0.43807128  0.65593452  0.73058874     0.34800
C2413       C  0.09077388  0.63543212  0.52605769    -0.26900
C2414       C  0.09387776  0.60918802  0.55105716    -0.15000
C2415       C  0.10934950  0.61741118  0.57999150     0.35700
C2416       C  0.10676575  0.64989004  0.58874424    -0.26300
C2417       C  0.09428847  0.67504022  0.56675700    -0.15600
C2418       C  0.08987085  0.66877971  0.53397548     0.36700
N2419       N  0.08137264  0.69494018  0.50926735    -0.89800
H2420       H  0.08503539  0.63027309  0.50150135     0.17900
H2421       H  0.11512100  0.65546672  0.61249648     0.17900
N2422       N  0.13012518  0.59433120  0.59896648    -0.88900
H2423       H  0.10069131  0.71226846  0.50696426     0.35200
H2424       H  0.06030040  0.70707627  0.51657376     0.40300
H2425       H  0.12236554  0.59290243  0.62314338     0.39900
H2426       H  0.15377990  0.60465575  0.59836145     0.34800
C2427       C  0.03315292  0.58314626  0.65939570    -0.26900
C2428       C  0.04939756  0.55788728  0.67847184    -0.15000
C2429       C  0.04827529  0.52436848  0.67137335     0.35700
C2430       C  0.03646719  0.51773142  0.64109980    -0.26300
C2431       C  0.02586800  0.54462393  0.61924039    -0.15600
C2432       C  0.02056314  0.57645104  0.62989779     0.36700
N2433       N  0.00499688  0.60284396  0.60988979    -0.89800
H2434       H  0.03110607  0.60835870  0.66703571     0.17900
H2435       H  0.03950838  0.49279237  0.63317435     0.17900
N2436       N  0.06004037  0.49780608  0.69423770    -0.88900
H2437       H  0.48521889  0.61219487  0.62244911     0.35200
H2438       H  0.02087558  0.62362978  0.60819623     0.40300
H2439       H  0.07882811  0.48510144  0.68341249     0.39900
H2440       H  0.04075016  0.48078312  0.69936609     0.34800
C2441       C  0.14343567  0.53014117  0.54643480    -0.26900
C2442       C  0.12478264  0.51928472  0.57387992    -0.15000
C2443       C  0.13943208  0.51699624  0.60477858     0.35700
C2444       C  0.17017553  0.53160211  0.60809154    -0.26300
C2445       C  0.18698865  0.54665034  0.58075352    -0.15600
C2446       C  0.17550405  0.54114208  0.54953024     0.36700
N2447       N  0.19581745  0.54739131  0.52120655    -0.89800
H2448       H  0.13235344  0.53260751  0.52259924     0.17900
H2449       H  0.17909710  0.53348085  0.63239000     0.17900
N2450       N  0.12243844  0.50324968  0.63337703    -0.88900
H2451       H  0.18319978  0.54170715  0.50036207     0.35200
H2452       H  0.21568211  0.53077937  0.52400468     0.40300
H2453       H  0.10088770  0.49107701  0.62724166     0.39900
H2454       H  0.11581733  0.52337482  0.64639639     0.34800
C2455       C  0.45415815  0.54247355  0.60629049    -0.26900
C2456       C  0.45962810  0.51048615  0.62318578    -0.15000
C2457       C  0.46886007  0.98150968  0.60361964     0.35700
C2458       C  0.98379180  0.48884459  0.57426136    -0.26300
C2459       C  0.98697531  0.52229291  0.56267797    -0.15600
C2460       C  0.96538148  0.54550553  0.57438526     0.36700
N2461       N  0.95803435  0.57684558  0.55595828    -0.89800
H2462       H  0.44038190  0.56156742  0.61734356     0.17900
H2463       H  0.99452807  0.97327587  0.56025127     0.17900
N2464       N  0.46838989  0.94622060  0.61419676    -0.88900
H2465       H  0.96786936  0.57673719  0.53265982     0.35200
H2466       H  0.93255576  0.57797209  0.55288071     0.40300
H2467       H  0.44609272  0.93858200  0.62470653     0.39900
H2468       H  0.48886198  0.93953150  0.62859341     0.34800
C2469       C  0.02840124  0.57795917  0.97483103    -0.26900
C2470       C  0.03556545  0.58829966  0.50413051    -0.15000
C2471       C  0.02172723  0.61820036  0.51408356     0.35700
C2472       C  0.01331943  0.64248801  0.99024097    -0.26300
C2473       C  0.00949672  0.63367946  0.95882445    -0.15600
C2474       C  0.01056005  0.59938390  0.95328944     0.36700
N2475       N  0.99321864  0.58658740  0.92667201    -0.89800
H2476       H  0.03267635  0.55283549  0.96853673     0.17900
H2477       H  0.00095599  0.66592687  0.49743476     0.17900
N2478       N  0.02044707  0.62501209  0.54720282    -0.88900
H2479       H  0.99627867  0.56052368  0.92691972     0.35200
H2480       H  0.96816477  0.59073355  0.93004771     0.40300
H2481       H  0.03107256  0.64849677  0.54943466     0.39900
H2482       H  0.99568476  0.62817738  0.55264340     0.34800
C2483       C  0.10305279  0.95498408  0.55112956    -0.26900
C2484       C  0.08756253  0.47990859  0.52963867    -0.15000
C2485       C  0.09763833  0.48569870  0.49719642     0.35700
C2486       C  0.12741682  0.97428774  0.98925687    -0.26300
C2487       C  0.14853482  0.95685240  0.51288039    -0.15600
C2488       C  0.13570640  0.94768211  0.54450030     0.36700
N2489       N  0.15509429  0.93161928  0.57048078    -0.89800
H2490       H  0.09435246  0.94911721  0.57578875     0.17900
H2491       H  0.13215381  0.97732493  0.96357572     0.17900
N2492       N  0.08115860  0.50801211  0.97264278    -0.88900
H2493       H  0.17458679  0.94757681  0.57511895     0.35200
H2494       H  0.16415796  0.90871814  0.56407901     0.40300
H2495       H  0.08191721  0.53259362  0.97909624     0.39900
H2496       H  0.05718392  0.49894924  0.97094163     0.34800
C2497       C  0.54315344  0.02983231  0.03372604     0.44900
H2498       H  0.52988446  0.01941340  0.01361743    -0.04100
C2499       C  0.57303559  0.05107237  0.08293296     0.44900
H2500       H  0.58365973  0.05777499  0.10578997    -0.04100
C2501       C  0.55671926  0.06630110  0.02773269    -0.17800
C2502       C  0.52082645  0.03304728  0.06206364    -0.17600
C2503       C  0.57219454  0.00768786  0.04668630    -0.18000
C2504       C  0.57560484  0.07645640  0.05315474    -0.17900
C2505       C  0.53693749  0.04350356  0.08798267    -0.17500
C2506       C  0.58831904  0.02013661  0.07212596    -0.17800
C2507       C  0.97432210  0.27102046  0.24570189     0.44900
H2508       H  0.99236136  0.25713315  0.26209723    -0.04100
C2509       C  0.93236773  0.30356392  0.20673275     0.44900
H2510       H  0.91433767  0.31769739  0.19040279    -0.04100
C2511       C  0.98762566  0.28239978  0.21100910    -0.17800
C2512       C  0.94270322  0.25105040  0.23998846    -0.17600
C2513       C  0.96126259  0.30367916  0.25813300    -0.18000
C2514       C  0.96467810  0.29896884  0.19106765    -0.17900
C2515       C  0.92152414  0.26836671  0.21853846    -0.17500
C2516       C  0.94011769  0.32080171  0.23665206    -0.17800
C2517       C  0.49925029  0.15953924  0.43444915     0.85900
C2518       C  0.51819850  0.19223163  0.43641490    -0.54300
C2519       C  0.50962192  0.21724223  0.41328764     0.08800
C2520       C  0.98295952  0.20491727  0.38705937     0.19800
C2521       C  0.96376832  0.16962254  0.43311040    -0.55000
C2522       C  0.95547246  0.19577924  0.41080384     0.08900
C2523       C  0.50853899  0.14998961  0.40135870    -0.54600
C2524       C  0.99393936  0.16889804  0.37555521     0.09500
H2525       H  0.53517209  0.19610592  0.45601740     0.14000
H2526       H  0.97668048  0.22383128  0.36661138    -0.00200
H2527       H  0.94771729  0.15971614  0.45262108     0.14300
H2528       H  0.52126885  0.12667838  0.39797068     0.14100
C2529       C  0.78910960  0.16610563  0.25582486     0.85900
C2530       C  0.81347436  0.19516688  0.25967300    -0.54300
C2531       C  0.83349549  0.19074445  0.28626003     0.08800
C2532       C  0.82459159  0.16004161  0.30894351     0.19800
C2533       C  0.81279216  0.13400977  0.25964793    -0.55000
C2534       C  0.83205927  0.13185113  0.28840026     0.08900
C2535       C  0.76920578  0.16156928  0.28646319    -0.54600
C2536       C  0.78721178  0.16015902  0.31361326     0.09500
H2537       H  0.81978544  0.21305093  0.23913102     0.14000
H2538       H  0.83827509  0.15847179  0.33233519    -0.00200
H2539       H  0.81564002  0.11687324  0.24103599     0.14300
H2540       H  0.74272880  0.16508175  0.28722087     0.14100
C2541       C  0.82108705  0.00660397  0.39877610     0.85900
C2542       C  0.82053125  0.48848648  0.43357282    -0.54300
C2543       C  0.84090442  0.50205501  0.45595581     0.08800
C2544       C  0.86029715  0.03462412  0.43748674     0.19800
C2545       C  0.81183096  0.04337304  0.40510626    -0.55000
C2546       C  0.83206069  0.05739769  0.42616736     0.08900
C2547       C  0.85743630  0.00315722  0.39198366    -0.54600
C2548       C  0.87615235  0.02721507  0.40266983     0.09500
H2549       H  0.80441098  0.46698757  0.43943039     0.14000
H2550       H  0.87774130  0.04613417  0.45390660    -0.00200
H2551       H  0.79030187  0.05652091  0.39495078     0.14300
H2552       H  0.86719009  0.48847995  0.37333286     0.14100
O2553       O  0.89512339  0.03729746  0.25209391    -0.81500
O2554       O  0.94723530  0.13309004  0.35652023    -0.66200
O2555       O  0.92284415  0.07098002  0.29516450    -1.12800
C2556       C  0.50619001  0.00224924  0.33840860     1.05400
O2557       O  0.99958415  0.12221734  0.34410375    -0.79400
O2558       O  0.53105959  0.07652219  0.31311431    -0.66900
Ni2559     Ni  0.88796242  0.04088120  0.29753452     1.34900
C2560       C  0.52176608  0.08308010  0.28399958     0.84200
O2561       O  0.88601998  0.12053526  0.31574154    -0.79900
O2562       O  0.85984906  0.07951530  0.28923891    -0.90200
C2563       C  0.97829139  0.14163965  0.35584009     0.83700
O2564       O  0.88053878  0.03871849  0.34380161    -0.68400
O2565       O  0.51221293  0.02419886  0.35900160    -0.87700
C2566       C  0.88916215  0.04917867  0.37095259     0.84600
C2567       C  0.86138335  0.10944040  0.29827078     1.06100
H2568       H  0.95607817  0.04823171  0.35441789     0.37900
O2569       O  0.96426591  0.06498686  0.33801123    -1.10300
O2570       O  0.99149551  0.07768245  0.27708587    -0.67000
Ni2571     Ni  0.96024701  0.04384048  0.29901790     1.26300
O2572       O  0.90804702  0.07486487  0.36982204    -0.67200
O2573       O  0.99555988  0.51235407  0.30949552    -0.79500
C2574       C  0.92186472  0.02724992  0.23983573     0.83900
O2575       O  0.94966669  0.02579578  0.25619888    -0.66700
Ni2576     Ni  0.50597211  0.07440540  0.35215531     1.27400
Ni2577     Ni  0.92902871  0.09795955  0.32952550     1.26100
H2578       H  0.92327355  0.08517086  0.27484584     0.38500
C2579       C  0.81904490  0.22107908  0.42099403     0.44900
H2580       H  0.82994062  0.21117966  0.39923572    -0.04100
C2581       C  0.79137127  0.24591062  0.46973340     0.44900
H2582       H  0.77933691  0.25666651  0.49047409    -0.04100
C2583       C  0.81997865  0.19673860  0.45163394    -0.17800
C2584       C  0.83501211  0.25328382  0.42949093    -0.17600
C2585       C  0.78307290  0.22862790  0.41673623    -0.18000
C2586       C  0.80678345  0.21077370  0.47797478    -0.17900
C2587       C  0.81916494  0.26770858  0.45401981    -0.17500
C2588       C  0.76775341  0.23999260  0.44264495    -0.17800
C2589       C  0.67858812  0.43884765  0.99705519     0.85900
C2590       C  0.71064556  0.43355848  0.01575298    -0.54300
C2591       C  0.73296804  0.41304727  0.00231759     0.08800
C2592       C  0.71662510  0.39663549  0.47456726     0.19800
C2593       C  0.68873759  0.44986030  0.46513556    -0.55000
C2594       C  0.70916126  0.42789438  0.45208541     0.08900
C2595       C  0.66381167  0.40458567  0.99660390    -0.54600
C2596       C  0.68051765  0.38212166  0.48314855     0.09500
H2597       H  0.71721997  0.44966076  0.03446539     0.14000
H2598       H  0.73326057  0.37836855  0.46438565    -0.00200
H2599       H  0.68233978  0.47364843  0.45185346     0.14300
H2600       H  0.63810290  0.40048149  0.00363996     0.14100
C2601       C  0.68286992  0.25777999  0.35191732     0.85900
C2602       C  0.68018749  0.23388426  0.32495006    -0.54300
C2603       C  0.66076796  0.24711184  0.29923974     0.08800
C2604       C  0.64486048  0.28250076  0.30569150     0.19800
C2605       C  0.69566374  0.29078057  0.33234064    -0.55000
C2606       C  0.67551105  0.30310495  0.30778523     0.08900
C2607       C  0.64763298  0.26225940  0.36197453    -0.54600
C2608       C  0.63058231  0.28296284  0.34149498     0.09500
H2609       H  0.69516785  0.21148230  0.32419956     0.14000
H2610       H  0.62741137  0.29197552  0.28630325    -0.00200
H2611       H  0.71858432  0.30314289  0.33752136     0.14300
H2612       H  0.64037443  0.25820913  0.38745107     0.14100
C2613       C  0.51498955  0.41026735  0.32110287     0.85900
C2614       C  0.99722039  0.44357871  0.32540094    -0.54300
C2615       C  0.51268238  0.46305318  0.34664784     0.08800
C2616       C  0.54415205  0.44363348  0.36378385     0.19800
C2617       C  0.54994741  0.42328765  0.31174475    -0.55000
C2618       C  0.56507345  0.44146871  0.33404646     0.08900
C2619       C  0.51497480  0.39313843  0.35494545    -0.54600
C2620       C  0.53645182  0.40445371  0.37562998     0.09500
H2621       H  0.97729381  0.45205212  0.30913848     0.14000
H2622       H  0.55463107  0.45775831  0.38310239     0.02600
H2623       H  0.55870640  0.42388657  0.28711755     0.14300
H2624       H  0.50268220  0.36883965  0.35964942     0.14100
O2625       O  0.51833855  0.27662156  0.39633087    -0.81500
O2626       O  0.64520552  0.36396378  0.43771264    -0.66200
O2627       O  0.58085059  0.29601878  0.41828326    -1.12800
C2628       C  0.51740582  0.34407644  0.99808315     1.05400
O2629       O  0.63551517  0.34441610  0.48875812    -0.79400
O2630       O  0.58692777  0.31739206  0.02436199    -0.66900
Ni2631     Ni  0.55574195  0.30219582  0.37850051     1.34900
C2632       C  0.58700066  0.28635455  0.02079064     0.84200
O2633       O  0.63546451  0.32129798  0.38500453    -0.79900
O2634       O  0.59110526  0.32458038  0.35523744    -0.90200
C2635       C  0.65459057  0.36033693  0.46788548     0.83700
O2636       O  0.54044601  0.34451602  0.39305727    -0.68400
O2637       O  0.54168603  0.36469984  0.00209504    -0.87700
C2638       C  0.55628302  0.37280843  0.39023450     0.84600
C2639       C  0.61977190  0.31323098  0.35936464     1.06100
H2640       H  0.56446566  0.35867830  0.44846011     0.37900
O2641       O  0.57886828  0.34088441  0.45683127    -1.10300
O2642       O  0.57964824  0.27555112  0.49191222    -0.67000
Ni2643     Ni  0.55336433  0.30151591  0.45534341     1.26300
O2644       O  0.58739355  0.37195811  0.39656273    -0.67200
O2645       O  0.52206518  0.31441382  0.48769143    -0.79500
C2646       C  0.51957433  0.25314997  0.41938385     0.83900
O2647       O  0.53018981  0.25980680  0.44763665    -0.66700
Ni2648     Ni  0.58969966  0.35655042  0.99544068     1.27400
Ni2649     Ni  0.61036480  0.33333627  0.42310442     1.26100
H2650       H  0.59222571  0.27467055  0.42064400     0.38500
C2651       C  0.76092417  0.10664597  0.06836005     0.85900
C2652       C  0.78163740  0.07467826  0.07385124    -0.54300
C2653       C  0.76892575  0.05057712  0.09604203     0.08800
C2654       C  0.73801405  0.06426418  0.11437381     0.19800
C2655       C  0.72631968  0.09287250  0.06163235    -0.55000
C2656       C  0.71485305  0.06948695  0.08554447     0.08900
C2657       C  0.75901215  0.12100909  0.10047106    -0.54600
C2658       C  0.74384211  0.10178078  0.12426637     0.09500
H2659       H  0.80078629  0.06900366  0.05699493     0.14000
H2660       H  0.73030202  0.04631404  0.13502077    -0.00200
H2661       H  0.71330976  0.09964395  0.03912481     0.14300
H2662       H  0.76454520  0.14754869  0.10244061     0.14100
C2663       C  0.54955750  0.08879783  0.25795623     0.85900
C2664       C  0.58444429  0.07686175  0.26952208    -0.54300
C2665       C  0.60758249  0.07730182  0.24487461     0.08800
C2666       C  0.59287422  0.08705824  0.21143052     0.19800
C2667       C  0.55814929  0.12426334  0.23846657    -0.55000
C2668       C  0.58275858  0.12277961  0.21457554     0.08900
C2669       C  0.54088146  0.06554665  0.23305394    -0.54600
C2670       C  0.56251194  0.06498920  0.20921459     0.09500
H2671       H  0.59045494  0.07032367  0.29488756     0.14000
H2672       H  0.60765577  0.08624119  0.18949838    -0.00200
H2673       H  0.55049585  0.14778165  0.24715747     0.14300
H2674       H  0.51735629  0.05254652  0.23211263     0.14100
C2675       C  0.57111496  0.25461464  0.11019376     0.85900
C2676       C  0.56718971  0.27420032  0.07712009    -0.54300
C2677       C  0.58943901  0.26531692  0.05410794     0.08800
C2678       C  0.61459994  0.23635682  0.06977685     0.19800
C2679       C  0.56804071  0.21720912  0.10130358    -0.55000
C2680       C  0.59065397  0.20888279  0.07910968     0.08900
C2681       C  0.60676703  0.26328240  0.11772105    -0.54600
C2682       C  0.62820992  0.24266108  0.10551532     0.09500
H2683       H  0.54875880  0.29367523  0.07217297     0.14000
H2684       H  0.63416276  0.22934077  0.05307082    -0.00200
H2685       H  0.54927086  0.19937334  0.11027701     0.14300
H2686       H  0.61257126  0.27455773  0.14006330     0.14100
O2687       O  0.63859282  0.22481152  0.25195361    -0.81500
O2688       O  0.69676625  0.13387538  0.14560129    -0.66200
O2689       O  0.66881957  0.19196358  0.20938433    -1.12800
C2690       C  0.75579116  0.26153168  0.17110922     1.05400
O2691       O  0.74799739  0.14066561  0.16381536    -0.79400
O2692       O  0.77853896  0.18422687  0.19909695    -0.66900
Ni2693     Ni  0.63122666  0.21899893  0.20658147     1.34900
C2694       C  0.76583457  0.17791181  0.22695504     0.84200
O2695       O  0.63393977  0.14230663  0.18482590    -0.79900
O2696       O  0.60599660  0.17817121  0.21558692    -0.90200
C2697       C  0.72750401  0.12439312  0.14755446     0.83700
O2698       O  0.62110882  0.21720274  0.16119777    -0.68400
O2699       O  0.76456725  0.23910793  0.15212602    -0.87700
C2700       C  0.63797995  0.21649371  0.13524712     0.84600
C2701       C  0.60880062  0.14966399  0.20361835     1.06100
H2702       H  0.70797154  0.21584080  0.15276693     0.37900
O2703       O  0.71389766  0.19851127  0.16962067    -1.10300
O2704       O  0.73556943  0.18631035  0.23220515    -0.67000
Ni2705     Ni  0.70628061  0.21987631  0.20779690     1.26300
O2706       O  0.66068704  0.19465265  0.13554366    -0.67200
O2707       O  0.74223297  0.25241244  0.19900151    -0.79500
C2708       C  0.66462649  0.23590867  0.26503510     0.83900
O2709       O  0.69290355  0.23818007  0.24967596    -0.66700
Ni2710     Ni  0.75686121  0.18930020  0.15769370     1.27400
Ni2711     Ni  0.67766105  0.16631451  0.17467970     1.26100
H2712       H  0.66905339  0.17713940  0.22931508     0.38500
C2713       C  0.73398207  0.48629703  0.26667523     0.44900
H2714       H  0.75137379  0.50128399  0.25069233    -0.04100
C2715       C  0.69169682  0.45211809  0.30328075     0.44900
H2716       H  0.67347002  0.43740696  0.31894280    -0.04100
C2717       C  0.74905626  0.46794589  0.29768289    -0.17800
C2718       C  0.70693644  0.50797231  0.27961923    -0.17600
C2719       C  0.71587158  0.45854325  0.24995680    -0.18000
C2720       C  0.72584698  0.45059168  0.31691281    -0.17900
C2721       C  0.68399551  0.48926432  0.29766214    -0.17500
C2722       C  0.69487369  0.43982585  0.27044191    -0.17800
C2723       C  0.94207186  0.00184207  0.15461290     0.85900
C2724       C  0.93936237  0.02690826  0.18065293    -0.54300
C2725       C  0.91905301  0.01523729  0.20606068     0.08800
C2726       C  0.90082876  0.48061301  0.20051998     0.19800
C2727       C  0.95245815  0.46980459  0.17597568    -0.55000
C2728       C  0.93080218  0.45876094  0.19971057     0.08900
C2729       C  0.90697458  0.99720623  0.14370360    -0.54600
C2730       C  0.88696483  0.47946332  0.16491462     0.09500
H2731       H  0.95502778  0.04894655  0.18113906     0.14000
H2732       H  0.88276530  0.47263168  0.21977739    -0.00200
H2733       H  0.97594359  0.45810724  0.17344239     0.14300
H2734       H  0.90037738  0.99984821  0.11797370     0.14100
C2735       C  0.75772814  0.35513910  0.18104612     0.85900
C2736       C  0.74181298  0.32080201  0.17947070    -0.54300
C2737       C  0.75953346  0.29994734  0.16101711     0.08800
C2738       C  0.79107130  0.31974894  0.14406497     0.19800
C2739       C  0.79319177  0.34509162  0.19333654    -0.55000
C2740       C  0.80973079  0.32441029  0.17467532     0.08900
C2741       C  0.75778986  0.36840206  0.14570849    -0.54600
C2742       C  0.78329425  0.35836005  0.12932190     0.09500
H2743       H  0.72188480  0.31187155  0.19539798     0.14000
H2744       H  0.80328456  0.30507211  0.12622194    -0.00200
H2745       H  0.80182999  0.35035015  0.21712775     0.14300
H2746       H  0.74429682  0.39134080  0.13779440     0.14100
C2747       C  0.92858629  0.32406834  0.00618539     0.85900
C2748       C  0.95784608  0.33445654  0.48796819    -0.54300
C2749       C  0.98167462  0.35375171  0.00281350     0.08800
C2750       C  0.96613389  0.36460229  0.03562693     0.19800
C2751       C  0.94303262  0.30835976  0.03837554    -0.55000
C2752       C  0.96174058  0.32989941  0.05432849     0.08900
C2753       C  0.91204679  0.35590245  0.01331853    -0.54600
C2754       C  0.92905174  0.37699571  0.02980225     0.09500
H2755       H  0.96386076  0.32253532  0.46621578     0.14000
H2756       H  0.98175633  0.38238218  0.04793973    -0.00200
H2757       H  0.93886119  0.28254274  0.04790990     0.14300
H2758       H  0.88476371  0.35877277  0.51087386     0.14100
O2759       O  0.77293114  0.99019965  0.11271835    -0.81500
O2760       O  0.89376851  0.39665535  0.07290531    -0.66200
O2761       O  0.83279755  0.46709665  0.09046316    -1.12800
C2762       C  0.76910488  0.42302051  0.51026066     1.05400
O2763       O  0.88767335  0.41809327  0.02194756    -0.79400
O2764       O  0.84133588  0.44967086  0.48625251    -0.66900
Ni2765     Ni  0.80779105  0.46314241  0.13031176     1.34900
C2766       C  0.84007702  0.48084123  0.48972092     0.84200
O2767       O  0.88600575  0.43887540  0.12416491    -0.79900
O2768       O  0.84259519  0.44099721  0.15495686    -0.90200
C2769       C  0.90493606  0.40086996  0.04355197     0.83700
O2770       O  0.79032603  0.41975505  0.11958829    -0.68400
O2771       O  0.79323720  0.40265455  0.50547628    -0.87700
C2772       C  0.80482329  0.39083922  0.11914164     0.84600
C2773       C  0.87199560  0.44968138  0.14926157     1.06100
H2774       H  0.81431696  0.40531902  0.05949240     0.37900
O2775       O  0.82955289  0.42265055  0.05157884    -1.10300
O2776       O  0.83284512  0.48951965  0.01673841    -0.67000
Ni2777     Ni  0.80568156  0.46307346  0.05248120     1.26300
O2778       O  0.83566839  0.39076364  0.11197246    -0.67200
O2779       O  0.77486086  0.45100962  0.01902223    -0.79500
C2780       C  0.77550236  0.01376915  0.08972665     0.83900
O2781       O  0.78478878  0.00636917  0.06136085    -0.66700
Ni2782     Ni  0.84141618  0.40810274  0.01252824     1.27400
Ni2783     Ni  0.86045220  0.42858169  0.08621938     1.26100
H2784       H  0.84545045  0.48773974  0.08812889     0.38500
C2785       C  0.76832482  0.40890673  0.20452682    -0.26900
C2786       C  0.74464166  0.38412459  0.19810398    -0.15000
C2787       C  0.71141023  0.39469205  0.19531488     0.35700
C2788       C  0.70299601  0.42675159  0.20361674    -0.26300
C2789       C  0.72619883  0.44586407  0.21931462    -0.15600
C2790       C  0.75947502  0.43927433  0.21539665     0.36700
N2791       N  0.78448978  0.46216605  0.22396051    -0.89800
H2792       H  0.79432728  0.40541829  0.20082170     0.17900
H2793       H  0.67717317  0.43321987  0.20449142     0.17900
N2794       N  0.68561466  0.37324455  0.18573587    -0.88900
H2795       H  0.79885774  0.46877336  0.20341328     0.35200
H2796       H  0.79951895  0.44962783  0.24174333     0.40300
H2797       H  0.68423553  0.35212413  0.20270002     0.39900
H2798       H  0.69081815  0.36570402  0.16283638     0.34800
C2799       C  0.69559765  0.04902517  0.23656925    -0.26900
C2800       C  0.70323080  0.54390081  0.26900034    -0.15000
C2801       C  0.68754927  0.56422680  0.28995118     0.35700
C2802       C  0.65666906  0.07848130  0.28104526    -0.26300
C2803       C  0.64371034  0.07394893  0.25016613    -0.15600
C2804       C  0.66556014  0.06281002  0.22647378     0.36700
N2805       N  0.65648959  0.06059628  0.19340536    -0.89800
H2806       H  0.70968973  0.03604519  0.21941205     0.17900
H2807       H  0.64264418  0.09087905  0.29859533     0.17900
N2808       N  0.69927129  0.56530673  0.32247964    -0.88900
H2809       H  0.65734112  0.03528892  0.18878029     0.35200
H2810       H  0.67378074  0.07397309  0.17859286     0.40300
H2811       H  0.68078332  0.55619387  0.33848131     0.39900
H2812       H  0.70341208  0.59056658  0.32612237     0.34800
C2813       C  0.64340902  0.49263007  0.33907935    -0.26900
C2814       C  0.65059590  0.49861005  0.30596942    -0.15000
C2815       C  0.62600447  0.49342618  0.28298736     0.35700
C2816       C  0.59621130  0.47910540  0.29347201    -0.26300
C2817       C  0.59252027  0.46525942  0.32577737    -0.15600
C2818       C  0.61593007  0.47328347  0.34909123     0.36700
N2819       N  0.61415361  0.45883103  0.38209448    -0.89800
H2820       H  0.66257640  0.49594286  0.35675366     0.17900
H2821       H  0.57769209  0.47531820  0.27536400     0.17900
N2822       N  0.63335710  0.49639799  0.24898090    -0.88900
H2823       H  0.61438413  0.47848207  0.39710478     0.35200
H2824       H  0.63521257  0.44427385  0.38721878     0.40300
H2825       H  0.61448387  0.50997303  0.23666271     0.39900
H2826       H  0.63289605  0.47237103  0.24093549     0.34800
C2827       C  0.65319833  0.35648979  0.28342708    -0.26900
C2828       C  0.68047016  0.33516841  0.28808669    -0.15000
C2829       C  0.71200009  0.34720620  0.27878177     0.35700
C2830       C  0.71622753  0.38170765  0.27133612    -0.26300
C2831       C  0.68913726  0.40352234  0.26968795    -0.15600
C2832       C  0.65740095  0.39058254  0.27416349     0.36700
N2833       N  0.62964110  0.41250020  0.27221763    -0.89800
H2834       H  0.62873224  0.34772261  0.29005078     0.17900
H2835       H  0.74090450  0.39166515  0.26826297     0.17900
N2836       N  0.73992683  0.32548885  0.27691621    -0.88900
H2837       H  0.61764653  0.40935934  0.29458442     0.35200
H2838       H  0.61372701  0.40482924  0.25448291     0.40300
H2839       H  0.73314520  0.30008832  0.27964930     0.39900
H2840       H  0.75615422  0.32996532  0.29564883     0.34800
C2841       C  0.71808008  0.40578147  0.39999372    -0.26900
C2842       C  0.72087660  0.43303717  0.41881386    -0.15000
C2843       C  0.72954831  0.46536437  0.40427627     0.35700
C2844       C  0.73092173  0.47042576  0.37077704    -0.26300
C2845       C  0.72801921  0.44325123  0.35200103    -0.15600
C2846       C  0.72189098  0.41061989  0.36648255     0.36700
N2847       N  0.71767498  0.38311455  0.34688865    -0.89800
H2848       H  0.71101238  0.38110610  0.41109843     0.17900
H2849       H  0.73451309  0.49574682  0.35926166     0.17900
N2850       N  0.73768423  0.49320735  0.42249918    -0.88900
H2851       H  0.71147802  0.36104090  0.36127408     0.35200
H2852       H  0.74044362  0.37881256  0.33647029     0.40300
H2853       H  0.74058177  0.48567901  0.44720085     0.39900
H2854       H  0.71906040  0.00930821  0.41711305     0.34800
C2855       C  0.84457790  0.28121345  0.50350950    -0.26900
C2856       C  0.83617174  0.29238618  0.47183859    -0.15000
C2857       C  0.85615672  0.31610736  0.45417186     0.35700
C2858       C  0.88899224  0.31840694  0.46311194    -0.26300
C2859       C  0.89987171  0.30398790  0.49390582    -0.15600
C2860       C  0.87643852  0.28907775  0.01304636     0.36700
N2861       N  0.88211696  0.27992615  0.04689614    -0.89800
H2862       H  0.82864379  0.26757161  0.01691336     0.17900
H2863       H  0.90469978  0.33555435  0.44823180     0.17900
N2864       N  0.84362801  0.33691395  0.42674073    -0.88900
H2865       H  0.87775996  0.25407327  0.05186834     0.35200
H2866       H  0.86542861  0.29293661  0.06022586     0.40300
H2867       H  0.83213620  0.32179099  0.41082973     0.39900
H2868       H  0.82534855  0.35218495  0.43523564     0.34800
C2869       C  0.76536802  0.18842009  0.01338280    -0.26900
C2870       C  0.79735743  0.19055391  0.50742644    -0.15000
C2871       C  0.81933217  0.16793018  0.52400427     0.35700
C2872       C  0.80768764  0.13897535  0.04116386    -0.26300
C2873       C  0.77340471  0.13432522  0.04424130    -0.15600
C2874       C  0.75230369  0.16118943  0.03251386     0.36700
N2875       N  0.71777270  0.16108546  0.04002005    -0.89800
H2876       H  0.74873162  0.20718179  0.00216713     0.17900
H2877       H  0.82470130  0.12139262  0.05369887     0.17900
N2878       N  0.85421349  0.17300840  0.52278108    -0.88900
H2879       H  0.70584719  0.18186574  0.02790404     0.35200
H2880       H  0.71536352  0.16359244  0.06479455     0.40300
H2881       H  0.85927916  0.19675286  0.53037314     0.39900
H2882       H  0.86242409  0.17279806  0.49896394     0.34800
C2883       C  0.70919269  0.28061549  0.39967381    -0.26900
C2884       C  0.70041494  0.25157193  0.38408673    -0.15000
C2885       C  0.69692841  0.22122366  0.40451012     0.35700
C2886       C  0.71228525  0.21874965  0.43522162    -0.26300
C2887       C  0.73225641  0.24563295  0.44337956    -0.15600
C2888       C  0.72455702  0.27768802  0.42966704     0.36700
N2889       N  0.73764152  0.30678191  0.44296570    -0.89800
H2890       H  0.70450759  0.30588797  0.38884753     0.17900
H2891       H  0.71432537  0.19428229  0.44893294     0.17900
N2892       N  0.67892855  0.19330341  0.39399118    -0.88900
H2893       H  0.75319844  0.31938313  0.42571977     0.35200
H2894       H  0.71800181  0.32276448  0.44672487     0.40300
H2895       H  0.65991515  0.18753726  0.41053943     0.39900
H2896       H  0.69444874  0.17241325  0.39487862     0.34800
C2897       C  0.80054229  0.51891630  0.34381220    -0.26900
C2898       C  0.80588920  0.49426416  0.37030865    -0.15000
C2899       C  0.80666998  0.46019224  0.36359317     0.35700
C2900       C  0.79584865  0.45167422  0.33325321    -0.26300
C2901       C  0.78119137  0.47640195  0.31132990    -0.15600
C2902       C  0.78793947  0.51041195  0.31449441     0.36700
N2903       N  0.77993923  0.53632859  0.28913955    -0.89800
H2904       H  0.80207163  0.04593553  0.34509708     0.17900
H2905       H  0.79290439  0.42525565  0.32961911     0.17900
N2906       N  0.81759293  0.43430741  0.38757191    -0.88900
H2907       H  0.78468901  0.56029224  0.29639414     0.35200
H2908       H  0.79565201  0.53336726  0.26969416     0.40300
H2909       H  0.79837975  0.41705153  0.39216001     0.39900
H2910       H  0.83717752  0.42172309  0.37783284     0.34800
C2911       C  0.85286886  0.11493971  0.42445780    -0.26900
C2912       C  0.82853535  0.09196193  0.43491923    -0.15000
C2913       C  0.80164317  0.10238263  0.45272754     0.35700
C2914       C  0.79954500  0.13637751  0.45891276    -0.26300
C2915       C  0.82416711  0.15985041  0.44833310    -0.15600
C2916       C  0.85070304  0.14858529  0.43058343     0.36700
N2917       N  0.87585824  0.17116933  0.41848737    -0.89800
H2918       H  0.87357095  0.10690244  0.41080029     0.17900
H2919       H  0.77774382  0.14462491  0.47054039     0.17900
N2920       N  0.77699197  0.07851461  0.46483948    -0.88900
H2921       H  0.87662877  0.17103708  0.39324738     0.35200
H2922       H  0.89785624  0.16102197  0.42775113     0.40300
H2923       H  0.76423687  0.07063349  0.44497249     0.39900
H2924       H  0.75972605  0.09007944  0.47876124     0.34800
C2925       C  0.76116219  0.18066915  0.39403887    -0.26900
C2926       C  0.76747159  0.21537105  0.38981640    -0.15000
C2927       C  0.77180297  0.23254030  0.35910142     0.35700
C2928       C  0.77375326  0.21353571  0.33303561    -0.26300
C2929       C  0.77383185  0.17823517  0.33854241    -0.15600
C2930       C  0.76547500  0.16143620  0.36838371     0.36700
N2931       N  0.76379371  0.12525847  0.37281616    -0.89800
H2932       H  0.75709005  0.16828504  0.41806337     0.17900
H2933       H  0.77903886  0.22593451  0.30915111     0.17900
N2934       N  0.77728289  0.26839509  0.35514001    -0.88900
H2935       H  0.75684300  0.11712454  0.39658416     0.35200
H2936       H  0.78748453  0.11604485  0.36970814     0.40300
H2937       H  0.77989767  0.27683159  0.33056538     0.39900
H2938       H  0.79961948  0.27341581  0.36623704     0.34800
C2939       C  0.91550874  0.24084045  0.39183767    -0.26900
C2940       C  0.93052814  0.22109683  0.41774783    -0.15000
C2941       C  0.91963250  0.22466624  0.44973247     0.35700
C2942       C  0.88854884  0.23738039  0.45369915    -0.26300
C2943       C  0.87111377  0.25279966  0.42714413    -0.15600
C2944       C  0.88671417  0.25872648  0.39705076     0.36700
N2945       N  0.87284320  0.28193044  0.37206164    -0.89800
H2946       H  0.92499584  0.24120319  0.36745539     0.17900
H2947       H  0.87747266  0.23357281  0.47743177     0.17900
N2948       N  0.93914023  0.21640430  0.47835870    -0.88900
H2949       H  0.87379782  0.30575104  0.38045973     0.35200
H2950       H  0.88819671  0.28402737  0.35179959     0.40300
H2951       H  0.96397797  0.21416738  0.47287198     0.39900
H2952       H  0.93030565  0.19402690  0.49056961     0.34800
C2953       C  0.96351695  0.34803799  0.10875079    -0.26900
C2954       C  0.97010216  0.32259512  0.08863523    -0.15000
C2955       C  0.97736729  0.28959787  0.10249951     0.35700
C2956       C  0.97438516  0.28234703  0.13585980    -0.26300
C2957       C  0.96776117  0.30781465  0.15588460    -0.15600
C2958       C  0.96234082  0.34089976  0.14219197     0.36700
N2959       N  0.95457597  0.36716553  0.16201381    -0.89800
H2960       H  0.95710700  0.37324626  0.09863350     0.17900
H2961       H  0.97737051  0.25658101  0.14623505     0.17900
N2962       N  0.98849772  0.26320424  0.08387555    -0.88900
H2963       H  0.93180084  0.37735403  0.15463941     0.35200
H2964       H  0.97237469  0.38602739  0.15808285     0.40300
H2965       H  0.99370172  0.27212796  0.05989179     0.39900
H2966       H  0.97005472  0.24489261  0.08398450     0.34800
C2967       C  0.86408007  0.26948550  0.23218418    -0.26900
C2968       C  0.88766802  0.25996389  0.21041409    -0.15000
C2969       C  0.88005522  0.26289637  0.17702876     0.35700
C2970       C  0.85450192  0.28409699  0.16585572    -0.26300
C2971       C  0.83402819  0.29889030  0.18771143    -0.15600
C2972       C  0.83634902  0.28743914  0.22106935     0.36700
N2973       N  0.81162450  0.29472890  0.24392804    -0.89800
H2974       H  0.86928969  0.26811683  0.25777960     0.17900
H2975       H  0.85247237  0.29050690  0.13996461     0.17900
N2976       N  0.90081736  0.24908195  0.15367449    -0.88900
H2977       H  0.80269033  0.27187843  0.25508900     0.35200
H2978       H  0.82260328  0.30778928  0.26187080     0.40300
H2979       H  0.92065086  0.23629878  0.16515970     0.39900
H2980       H  0.91027109  0.26908611  0.13829796     0.34800
C2981       C  0.96584649  0.37691932  0.23080886    -0.26900
C2982       C  0.93712493  0.35735930  0.23379622    -0.15000
C2983       C  0.90628711  0.37244113  0.23075767     0.35700
C2984       C  0.90446481  0.40691075  0.22289089    -0.26300
C2985       C  0.93327523  0.42626642  0.21864945    -0.15600
C2986       C  0.96406107  0.41170785  0.22593987     0.36700
N2987       N  0.99323905  0.43203768  0.22683084    -0.89800
H2988       H  0.98966831  0.36501568  0.23115377     0.17900
H2989       H  0.88048131  0.41759213  0.21735050     0.17900
N2990       N  0.87695306  0.35257436  0.23352778    -0.88900
H2991       H  0.51374356  0.41509793  0.23054433     0.35200
H2992       H  0.99049960  0.44741100  0.24572631     0.40300
H2993       H  0.86244545  0.36130643  0.25174026     0.39900
H2994       H  0.86415255  0.35684211  0.21160316     0.34800
C2995       C  0.96860868  0.37437385  0.30738005    -0.26900
C2996       C  0.50118914  0.38322385  0.30103655    -0.15000
C2997       C  0.52169798  0.35642287  0.29141886     0.35700
C2998       C  0.50786542  0.32630726  0.28350540    -0.26300
C2999       C  0.97600494  0.32100283  0.28470570    -0.15600
C3000       C  0.95629811  0.34276405  0.30114962     0.36700
N3001       N  0.92285120  0.33400711  0.30866131    -0.89800
H3002       H  0.95257624  0.39127475  0.31891814     0.17900
H3003       H  0.52333313  0.30847497  0.27250911     0.17900
N3004       N  0.55667797  0.35824383  0.28869490    -0.88900
H3005       H  0.90768385  0.35293270  0.29769534     0.35200
H3006       H  0.92001868  0.33400819  0.33374472     0.40300
H3007       H  0.56724273  0.36339095  0.31064043     0.39900
H3008       H  0.56311819  0.37581540  0.26945567     0.34800
C3009       C  0.53545325  0.30112011  0.17945359    -0.26900
C3010       C  0.01978953  0.27425867  0.19740040    -0.15000
C3011       C  0.02517985  0.24100994  0.19081230     0.35700
C3012       C  0.54177265  0.23555295  0.16337725    -0.26300
C3013       C  0.55120676  0.26225834  0.14002040    -0.15600
C3014       C  0.54973856  0.29539380  0.14959482     0.36700
N3015       N  0.56200829  0.32338041  0.12875211    -0.89800
H3016       H  0.53177522  0.32692502  0.18487267     0.17900
H3017       H  0.54656092  0.20954125  0.15997661     0.17900
N3018       N  0.01178989  0.21365294  0.21165167    -0.88900
H3019       H  0.54265618  0.34021665  0.12339410     0.35200
H3020       H  0.57990033  0.33561238  0.14152161     0.40300
H3021       H  0.99577832  0.20016888  0.19789917     0.39900
H3022       H  0.03112879  0.19769816  0.21948300     0.34800
C3023       C  0.91623404  0.23235069  0.29151111    -0.26900
C3024       C  0.92997290  0.22330898  0.26240090    -0.15000
C3025       C  0.91709866  0.19560095  0.24818477     0.35700
C3026       C  0.88607570  0.18365755  0.25755954    -0.26300
C3027       C  0.86875639  0.19829729  0.28189478    -0.15600
C3028       C  0.88515942  0.21996929  0.30117924     0.36700
N3029       N  0.86890972  0.23281575  0.32785315    -0.89800
H3030       H  0.92645960  0.25324692  0.30317354     0.17900
H3031       H  0.87446381  0.16508762  0.24383984     0.17900
N3032       N  0.93299442  0.18343102  0.22082034    -0.88900
H3033       H  0.86241199  0.21254446  0.34452653     0.35200
H3034       H  0.84740606  0.24503344  0.31937471     0.40300
H3035       H  0.91669691  0.18589335  0.20117754     0.39900
H3036       H  0.93752618  0.15772261  0.22643236     0.34800
C3037       C  0.59277962  0.13475908  0.02914106    -0.26900
C3038       C  0.59410051  0.10899380  0.05477918    -0.15000
C3039       C  0.60810159  0.11752017  0.08433396     0.35700
C3040       C  0.60587350  0.15042633  0.09204607    -0.26300
C3041       C  0.59510258  0.17540757  0.06885512    -0.15600
C3042       C  0.59206491  0.16838107  0.03617156     0.36700
N3043       N  0.58464015  0.19404965  0.01060355    -0.89800
H3044       H  0.58801873  0.12909855  0.00453301     0.17900
H3045       H  0.61292571  0.15638925  0.11606812     0.17900
N3046       N  0.62706839  0.09426735  0.10514620    -0.88900
H3047       H  0.60405497  0.21127311  0.00855948     0.35200
H3048       H  0.56333479  0.20653202  0.01678154     0.40300
H3049       H  0.61768555  0.09373044  0.12869706     0.39900
H3050       H  0.65103070  0.10368428  0.10581962     0.34800
C3051       C  0.53374411  0.08219397  0.16045815    -0.26900
C3052       C  0.54961599  0.05639024  0.17923307    -0.15000
C3053       C  0.54731418  0.02294161  0.17205641     0.35700
C3054       C  0.53457405  0.01676508  0.14203195    -0.26300
C3055       C  0.52451867  0.04406145  0.12039562    -0.15600
C3056       C  0.52027549  0.07596349  0.13121193     0.36700
N3057       N  0.50534619  0.10292574  0.11136763    -0.89800
H3058       H  0.53257440  0.10743298  0.16815441     0.17900
H3059       H  0.53687196  0.99181724  0.13392522     0.17900
N3060       N  0.55889314  0.99594956  0.19452840    -0.88900
H3061       H  0.98331125  0.11201207  0.12243596     0.35200
H3062       H  0.52189001  0.12315684  0.10958426     0.40300
H3063       H  0.57694419  0.98274727  0.18315740     0.39900
H3064       H  0.53923736  0.97949148  0.20003454     0.34800
C3065       C  0.64271406  0.03092050  0.04771261    -0.26900
C3066       C  0.62438724  0.01948982  0.07523238    -0.15000
C3067       C  0.63934060  0.01710288  0.10599806     0.35700
C3068       C  0.66993930  0.03218213  0.10910095    -0.26300
C3069       C  0.68658616  0.04707157  0.08156767    -0.15600
C3070       C  0.67492848  0.04134517  0.05053314     0.36700
N3071       N  0.69527751  0.04670144  0.02214310    -0.89800
H3072       H  0.63140612  0.03424374  0.02404420     0.17900
H3073       H  0.67908866  0.03417756  0.13330546     0.17900
N3074       N  0.62287381  0.00252662  0.13461751    -0.88900
H3075       H  0.68252197  0.04072922  0.00147506     0.35200
H3076       H  0.71486776  0.02976797  0.02525560     0.40300
H3077       H  0.60125784  0.99040888  0.12854790     0.39900
H3078       H  0.61637136  0.02216673  0.14831405     0.34800
C3079       C  0.95377616  0.04072128  0.10570697    -0.26900
C3080       C  0.96015074  0.00901693  0.12288366    -0.15000
C3081       C  0.97079395  0.48169070  0.10456511     0.35700
C3082       C  0.48163272  0.99093319  0.07348819    -0.26300
C3083       C  0.48600340  0.02435254  0.06245647    -0.15600
C3084       C  0.46485808  0.04796843  0.07434550     0.36700
N3085       N  0.45792655  0.07950286  0.05606315    -0.89800
H3086       H  0.93981668  0.05967708  0.11677088     0.17900
H3087       H  0.49595073  0.46932948  0.06087068     0.17900
N3088       N  0.97024633  0.44640270  0.11510117    -0.88900
H3089       H  0.46798504  0.07950180  0.03284993     0.35200
H3090       H  0.43247994  0.08089420  0.05276001     0.40300
H3091       H  0.94757699  0.43879753  0.12489703     0.39900
H3092       H  0.99027385  0.43984210  0.13015610     0.34800
C3093       C  0.52639074  0.07765166  0.47653724    -0.26900
C3094       C  0.53683437  0.08949845  0.00608681    -0.15000
C3095       C  0.52331149  0.11974066  0.01566187     0.35700
C3096       C  0.50975757  0.14169346  0.49228800    -0.26300
C3097       C  0.50580750  0.13274242  0.46090058    -0.15600
C3098       C  0.50750567  0.09848219  0.45545878     0.36700
N3099       N  0.48972744  0.08511293  0.42942194    -0.89800
H3100       H  0.53155739  0.05280989  0.46991351     0.17900
H3101       H  0.50304215  0.16753142  0.99819458     0.17900
N3102       N  0.52186856  0.12693773  0.04868849    -0.88900
H3103       H  0.49339888  0.05912828  0.42969100     0.35200
H3104       H  0.46469685  0.08858641  0.43356705     0.40300
H3105       H  0.53238343  0.15052376  0.05067776     0.39900
H3106       H  0.49708114  0.13002404  0.05407184     0.34800
C3107       C  0.60610884  0.45729967  0.04834850    -0.26900
C3108       C  0.58815351  0.98124215  0.02972161    -0.15000
C3109       C  0.59911230  0.98847630  0.99761499     0.35700
C3110       C  0.62801374  0.47427569  0.48979333    -0.26300
C3111       C  0.65147562  0.45941909  0.01011429    -0.15600
C3112       C  0.63842411  0.44947281  0.04152955     0.36700
N3113       N  0.65695967  0.43114520  0.06691632    -0.89800
H3114       H  0.59710848  0.45049536  0.07276729     0.17900
H3115       H  0.63365980  0.47841943  0.46435489     0.17900
N3116       N  0.58014222  0.00675140  0.47360707    -0.88900
H3117       H  0.67715989  0.44569185  0.07258692     0.35200
H3118       H  0.66482610  0.40814559  0.05966544     0.40300
H3119       H  0.58049633  0.03145871  0.47975821     0.39900
H3120       H  0.55629204  0.99722155  0.47239933     0.34800
C3121       C  0.54314006  0.02874525  0.53357017     0.44900
H3122       H  0.52997349  0.01848248  0.51333402    -0.04100
C3123       C  0.57251917  0.04989376  0.58308883     0.44900
H3124       H  0.58292251  0.05656023  0.60603032    -0.04100
C3125       C  0.55658926  0.06526983  0.52778303    -0.17800
C3126       C  0.52060323  0.03166311  0.56177469    -0.17600
C3127       C  0.57218209  0.00665226  0.54671252    -0.18000
C3128       C  0.57517256  0.07538418  0.55340895    -0.17900
C3129       C  0.53645060  0.04199032  0.58791752    -0.17500
C3130       C  0.58812441  0.01917532  0.57222607    -0.17800
C3131       C  0.97354340  0.26957077  0.74639110     0.44900
H3132       H  0.99183294  0.25550598  0.76234812    -0.04100
C3133       C  0.93083576  0.30269651  0.70854510     0.44900
H3134       H  0.91266961  0.31703360  0.69252020    -0.04100
C3135       C  0.98568790  0.27997212  0.71103834    -0.17800
C3136       C  0.94106251  0.25045378  0.74228208    -0.17600
C3137       C  0.96183803  0.30281650  0.75871024    -0.18000
C3138       C  0.96232696  0.29680436  0.69187611    -0.17900
C3139       C  0.91943241  0.26804429  0.72151398    -0.17500
C3140       C  0.94037448  0.32023703  0.73778963    -0.17800
C3141       C  0.50000706  0.15990758  0.93414123     0.85900
C3142       C  0.51960957  0.19222569  0.93563932    -0.54300
C3143       C  0.51116682  0.21720342  0.91241929     0.08800
C3144       C  0.98369524  0.20523527  0.88734852     0.19800
C3145       C  0.96265081  0.17011052  0.93274298    -0.55000
C3146       C  0.95551232  0.19653062  0.91035479     0.08900
C3147       C  0.50894963  0.14957159  0.90126786    -0.54600
C3148       C  0.99410449  0.16911447  0.87590778     0.09500
H3149       H  0.53638734  0.19613099  0.95539478     0.14000
H3150       H  0.97814477  0.22441975  0.86689400    -0.00200
H3151       H  0.94588709  0.16053519  0.95178357     0.14300
H3152       H  0.52123974  0.12591505  0.89828739     0.14100
C3153       C  0.78793789  0.16665530  0.75521797     0.85900
C3154       C  0.81172097  0.19594285  0.75991283    -0.54300
C3155       C  0.83141559  0.19127206  0.78668955     0.08800
C3156       C  0.82257855  0.16012838  0.80885803     0.19800
C3157       C  0.81208984  0.13486355  0.75892991    -0.55000
C3158       C  0.83093230  0.13246130  0.78801365     0.08900
C3159       C  0.76756268  0.16119844  0.78554389    -0.54600
C3160       C  0.78508016  0.15958896  0.81300617     0.09500
H3161       H  0.81812971  0.21419555  0.73968977     0.14000
H3162       H  0.83592492  0.15836093  0.83244024    -0.00200
H3163       H  0.81553850  0.11815043  0.74004840     0.14300
H3164       H  0.74101460  0.16423229  0.78596817     0.14100
C3165       C  0.82297473  0.00657789  0.89912786     0.85900
C3166       C  0.82037257  0.48777087  0.93207873    -0.54300
C3167       C  0.84057177  0.50111911  0.95476776     0.08800
C3168       C  0.86158288  0.03515758  0.93784344     0.19800
C3169       C  0.81341116  0.04334537  0.90505718    -0.55000
C3170       C  0.83346594  0.05772012  0.92594618     0.08900
C3171       C  0.85948926  0.00309113  0.89282595    -0.54600
C3172       C  0.87771011  0.02771486  0.90311146     0.09500
H3173       H  0.80449555  0.46599283  0.93748498     0.14000
H3174       H  0.87882146  0.04701203  0.95421728    -0.00200
H3175       H  0.79193319  0.05632997  0.89455050     0.14300
H3176       H  0.86746666  0.48881981  0.87230457     0.14100
O3177       O  0.89394773  0.03798600  0.75220509    -0.81500
O3178       O  0.94717550  0.13419968  0.85600520    -0.66200
O3179       O  0.92219208  0.07194212  0.79479575    -1.12800
C3180       C  0.50649500  0.00103030  0.83853873     1.05400
O3181       O  0.99941233  0.12385911  0.84280243    -0.79400
O3182       O  0.53099471  0.07538301  0.81306176    -0.66900
Ni3183     Ni  0.88718053  0.04180302  0.79765990     1.34900
C3184       C  0.52150208  0.08213180  0.78403021     0.84200
O3185       O  0.88521515  0.12145781  0.81550629    -0.79900
O3186       O  0.85903800  0.08032560  0.78916961    -0.90200
C3187       C  0.97826459  0.14280033  0.85529128     0.83700
O3188       O  0.87980420  0.03981706  0.84402863    -0.68400
O3189       O  0.51238791  0.02304365  0.85908475    -0.87700
C3190       C  0.88947146  0.05001201  0.87099084     0.84600
C3191       C  0.86052283  0.11028843  0.79804721     1.06100
H3192       H  0.95649169  0.04968404  0.85359872     0.37900
O3193       O  0.96433754  0.06645891  0.83703403    -1.10300
O3194       O  0.99104017  0.07870315  0.77572861    -0.67000
Ni3195     Ni  0.95983227  0.04497503  0.79829375     1.26300
O3196       O  0.90857740  0.07555626  0.86945041    -0.67200
O3197       O  0.99608972  0.51097343  0.81030652    -0.79500
C3198       C  0.92052880  0.02794574  0.73965217     0.83900
O3199       O  0.94855421  0.02654308  0.75571381    -0.66700
Ni3200     Ni  0.50621330  0.07325052  0.85221785     1.27400
Ni3201     Ni  0.92871507  0.09912308  0.82894181     1.26100
H3202       H  0.92236218  0.08606764  0.77443389     0.38500
C3203       C  0.81969673  0.22149491  0.91979120     0.44900
H3204       H  0.83029453  0.21183001  0.89782109    -0.04100
C3205       C  0.79253769  0.24602730  0.96890002     0.44900
H3206       H  0.78063353  0.25670763  0.98973925    -0.04100
C3207       C  0.82140866  0.19718741  0.95045753    -0.17800
C3208       C  0.83539987  0.25398260  0.92788844    -0.17600
C3209       C  0.78359121  0.22832841  0.91608935    -0.18000
C3210       C  0.80839920  0.21094608  0.97710110    -0.17900
C3211       C  0.81977749  0.26838092  0.95252172    -0.17500
C3212       C  0.76853843  0.23962710  0.94217829    -0.17800
C3213       C  0.67763154  0.43833038  0.50016591     0.85900
C3214       C  0.70994726  0.43351900  0.51862232    -0.54300
C3215       C  0.73261311  0.41375915  0.50456835     0.08800
C3216       C  0.71691340  0.39574085  0.97255846     0.19800
C3217       C  0.68987353  0.44936264  0.96189862    -0.55000
C3218       C  0.71015065  0.42677968  0.94944155     0.08900
C3219       C  0.66368640  0.40369536  0.49939118    -0.54600
C3220       C  0.68055487  0.38214960  0.98133283     0.09500
H3221       H  0.71635945  0.44941730  0.53755241     0.14000
H3222       H  0.73329954  0.37692575  0.96293286    -0.00200
H3223       H  0.68378118  0.47287972  0.94804591     0.14300
H3224       H  0.63821718  0.39878876  0.50684418     0.14100
C3225       C  0.68310886  0.25912800  0.85202350     0.85900
C3226       C  0.68075096  0.23518891  0.82506703    -0.54300
C3227       C  0.66127460  0.24809127  0.79932722     0.08800
C3228       C  0.64524483  0.28348441  0.80546409     0.19800
C3229       C  0.69573482  0.29225134  0.83264092    -0.55000
C3230       C  0.67579744  0.30432540  0.80779013     0.08900
C3231       C  0.64780778  0.26342504  0.86186385    -0.54600
C3232       C  0.63056016  0.28373879  0.84108778     0.09500
H3233       H  0.69565534  0.21271178  0.82453515     0.14000
H3234       H  0.62794353  0.29282539  0.78589713    -0.00200
H3235       H  0.71859688  0.30462864  0.83791031     0.14300
H3236       H  0.64046869  0.25938693  0.88731506     0.14100
C3237       C  0.51556431  0.41098002  0.82165813     0.85900
C3238       C  0.99738669  0.44210430  0.82634179    -0.54300
C3239       C  0.51281816  0.46429086  0.84622107     0.08800
C3240       C  0.54377902  0.44471462  0.86461193     0.19800
C3241       C  0.55087892  0.42347706  0.81324603    -0.55000
C3242       C  0.56545278  0.44177295  0.83568540     0.08900
C3243       C  0.51402915  0.39471718  0.85591592    -0.54600
C3244       C  0.53565822  0.40559827  0.87660994     0.09500
H3245       H  0.97700773  0.45051064  0.81063013     0.14000
H3246       H  0.55433555  0.45899050  0.88383785     0.02600
H3247       H  0.56008675  0.42458828  0.78876361     0.14300
H3248       H  0.50101408  0.37087494  0.86095583     0.14100
O3249       O  0.51778057  0.27729083  0.89707934    -0.81500
O3250       O  0.64465870  0.36420659  0.93675754    -0.66200
O3251       O  0.58045368  0.29635651  0.91804030    -1.12800
C3252       C  0.51694096  0.34370118  0.49799315     1.05400
O3253       O  0.63575992  0.34451392  0.98792010    -0.79400
O3254       O  0.58641868  0.31673476  0.52428008    -0.66900
Ni3255     Ni  0.55495231  0.30252678  0.87846518     1.34900
C3256       C  0.58630404  0.28575972  0.52038090     0.84200
O3257       O  0.63461904  0.32216419  0.88429326    -0.79900
O3258       O  0.59014346  0.32462336  0.85454345    -0.90200
C3259       C  0.65458903  0.36024469  0.96669759     0.83700
O3260       O  0.53969317  0.34516972  0.89254435    -0.68400
O3261       O  0.54118517  0.36429961  0.50224261    -0.87700
C3262       C  0.55554065  0.37349067  0.89028947     0.84600
C3263       C  0.61903077  0.31379929  0.85874684     1.06100
H3264       H  0.56407579  0.35865737  0.94840424     0.37900
O3265       O  0.57872280  0.34100334  0.95667756    -1.10300
O3266       O  0.58015848  0.27587108  0.99238946    -0.67000
Ni3267     Ni  0.55344109  0.30151150  0.95560680     1.26300
O3268       O  0.58665713  0.37249585  0.89647371    -0.67200
O3269       O  0.52242154  0.31455225  0.98817820    -0.79500
C3270       C  0.51991065  0.25323951  0.91949239     0.83900
O3271       O  0.53044365  0.25958597  0.94791313    -0.66700
Ni3272     Ni  0.58932536  0.35623748  0.49586554     1.27400
Ni3273     Ni  0.60980695  0.33373582  0.92256880     1.26100
H3274       H  0.59197988  0.27508150  0.92017841     0.38500
C3275       C  0.76027622  0.10684488  0.56854041     0.85900
C3276       C  0.78101953  0.07488672  0.57352415    -0.54300
C3277       C  0.76831103  0.05056251  0.59545999     0.08800
C3278       C  0.73752516  0.06421423  0.61420816     0.19800
C3279       C  0.72566839  0.09319724  0.56175271    -0.55000
C3280       C  0.71425527  0.06974869  0.58552672     0.08900
C3281       C  0.75865384  0.12091615  0.60079774    -0.54600
C3282       C  0.74334440  0.10168854  0.62445939     0.09500
H3283       H  0.80008644  0.06946568  0.55647463     0.14000
H3284       H  0.72994758  0.04605802  0.63474528    -0.00200
H3285       H  0.71266054  0.09998111  0.53924700     0.14300
H3286       H  0.76431160  0.14741738  0.60289102     0.14100
C3287       C  0.54899278  0.08817724  0.75788682     0.85900
C3288       C  0.58359548  0.07538700  0.76925782    -0.54300
C3289       C  0.60667727  0.07598672  0.74466587     0.08800
C3290       C  0.59228270  0.08679229  0.71129658     0.19800
C3291       C  0.55803966  0.12389808  0.73911717    -0.55000
C3292       C  0.58254959  0.12256374  0.71511327     0.08900
C3293       C  0.53985761  0.06582263  0.73236500    -0.54600
C3294       C  0.56156588  0.06533688  0.70859146     0.09500
H3295       H  0.58959832  0.06832774  0.79454917     0.14000
H3296       H  0.60745071  0.08612556  0.68955055    -0.00200
H3297       H  0.55039497  0.14734767  0.74799534     0.14300
H3298       H  0.51623216  0.05306022  0.73118141     0.14100
C3299       C  0.56858248  0.25372802  0.60892611     0.85900
C3300       C  0.56502756  0.27313123  0.57581663    -0.54300
C3301       C  0.58786337  0.26435740  0.55333023     0.08800
C3302       C  0.61293940  0.23549726  0.56941474     0.19800
C3303       C  0.56591422  0.21627597  0.60023704    -0.55000
C3304       C  0.58894552  0.20799913  0.57843285     0.08900
C3305       C  0.60403752  0.26272423  0.61674902    -0.54600
C3306       C  0.62590599  0.24211981  0.60524904     0.09500
H3307       H  0.54671811  0.29267205  0.57055487     0.14000
H3308       H  0.63284630  0.22855206  0.55306818    -0.00200
H3309       H  0.54706116  0.19839983  0.60892023     0.14300
H3310       H  0.60956166  0.27506318  0.63854680     0.14100
O3311       O  0.63864642  0.22314223  0.75359843    -0.81500
O3312       O  0.69590988  0.13388093  0.64560056    -0.66200
O3313       O  0.66832100  0.19218791  0.70951087    -1.12800
C3314       C  0.75448758  0.26242070  0.67021864     1.05400
O3315       O  0.74715314  0.14135278  0.66341492    -0.79400
O3316       O  0.77758285  0.18525790  0.69838212    -0.66900
Ni3317     Ni  0.63106175  0.21927698  0.70803168     1.34900
C3318       C  0.76489668  0.17879649  0.72623550     0.84200
O3319       O  0.63369953  0.14195636  0.68554169    -0.79900
O3320       O  0.60532242  0.17834709  0.71535510    -0.90200
C3321       C  0.72674289  0.12464587  0.64745220     0.83700
O3322       O  0.62205530  0.22100119  0.66228726    -0.68400
O3323       O  0.76312825  0.23992577  0.65126273    -0.87700
C3324       C  0.63662319  0.21701862  0.63554267     0.84600
C3325       C  0.60842753  0.14954957  0.70395824     1.06100
H3326       H  0.70618064  0.21609956  0.65187953     0.37900
O3327       O  0.71256542  0.19913222  0.66890440    -1.10300
O3328       O  0.73472913  0.18735621  0.73152969    -0.67000
Ni3329     Ni  0.70523757  0.22060718  0.70720111     1.26300
O3330       O  0.65815625  0.19385428  0.63564823    -0.67200
O3331       O  0.74079251  0.25347410  0.69804271    -0.79500
C3332       C  0.66450028  0.23596013  0.76548254     0.83900
O3333       O  0.69215711  0.23921999  0.74909371    -0.66700
Ni3334     Ni  0.75564768  0.19008994  0.65703212     1.27400
Ni3335     Ni  0.67677617  0.16648035  0.67466176     1.26100
H3336       H  0.66910759  0.17734564  0.72941720     0.38500
C3337       C  0.73461601  0.48681116  0.76494365     0.44900
H3338       H  0.75153005  0.50247021  0.74893318    -0.04100
C3339       C  0.69358370  0.45082637  0.80151525     0.44900
H3340       H  0.67591275  0.43526716  0.81711795    -0.04100
C3341       C  0.75051646  0.46810840  0.79535153    -0.17800
C3342       C  0.70719505  0.50737817  0.77866768    -0.17600
C3343       C  0.71685838  0.45927347  0.74785478    -0.18000
C3344       C  0.72800792  0.44966832  0.81458241    -0.17900
C3345       C  0.68501516  0.48782900  0.79697640    -0.17500
C3346       C  0.69642494  0.43967367  0.76814969    -0.17800
C3347       C  0.94067470  0.00317855  0.65427907     0.85900
C3348       C  0.93743306  0.02819767  0.68030481    -0.54300
C3349       C  0.91729987  0.01618597  0.70573997     0.08800
C3350       C  0.90144859  0.48017516  0.70127179     0.19800
C3351       C  0.95261660  0.46887252  0.67618041    -0.55000
C3352       C  0.93109507  0.45799090  0.70007232     0.08900
C3353       C  0.90574917  0.99796883  0.64319658    -0.54600
C3354       C  0.88724680  0.47937331  0.66583431     0.09500
H3355       H  0.95288086  0.05037899  0.68089732     0.14000
H3356       H  0.88350056  0.47225870  0.72065803    -0.00200
H3357       H  0.97596746  0.45697341  0.67345388     0.14300
H3358       H  0.89931916  0.00053942  0.61742969     0.14100
C3359       C  0.75688420  0.35605977  0.68000717     0.85900
C3360       C  0.74063397  0.32189861  0.67821471    -0.54300
C3361       C  0.75866774  0.30075833  0.66021873     0.08800
C3362       C  0.79089220  0.32011839  0.64420610     0.19800
C3363       C  0.79188176  0.34548623  0.69337176    -0.55000
C3364       C  0.80869273  0.32434905  0.67546247     0.08900
C3365       C  0.75767418  0.36883518  0.64457578    -0.54600
C3366       C  0.78372595  0.35883765  0.62916547     0.09500
H3367       H  0.72015977  0.31331861  0.69359232     0.14000
H3368       H  0.80336242  0.30539577  0.62658815    -0.00200
H3369       H  0.79986609  0.35087236  0.71732989     0.14300
H3370       H  0.74419246  0.39157633  0.63593561     0.14100
C3371       C  0.92750296  0.32308528  0.50813110     0.85900
C3372       C  0.95915400  0.33543979  0.98641136    -0.54300
C3373       C  0.98057695  0.35284916  0.50400914     0.08800
C3374       C  0.96557269  0.36356989  0.53700823     0.19800
C3375       C  0.94224721  0.30734950  0.53994278    -0.55000
C3376       C  0.96135625  0.32869128  0.55570131     0.08900
C3377       C  0.91102280  0.35478913  0.51565627    -0.54600
C3378       C  0.92845946  0.37604289  0.53155300     0.09500
H3379       H  0.96547270  0.32352754  0.96473376     0.14000
H3380       H  0.98144551  0.38135601  0.54901550    -0.00200
H3381       H  0.93782399  0.28159975  0.54933666     0.14300
H3382       H  0.88587994  0.35992941  0.00805526     0.14100
O3383       O  0.77154776  0.98991435  0.61106462    -0.81500
O3384       O  0.89379606  0.39694274  0.57408953    -0.66200
O3385       O  0.83348799  0.46783606  0.59205526    -1.12800
C3386       C  0.76943865  0.42186442  0.00825481     1.05400
O3387       O  0.88796000  0.41804736  0.52300157    -0.79400
O3388       O  0.84071259  0.44852478  0.98472759    -0.66900
Ni3389     Ni  0.80881842  0.46343678  0.63219375     1.34900
C3390       C  0.83982024  0.47968269  0.98829524     0.84200
O3391       O  0.88680083  0.43883867  0.62520238    -0.79900
O3392       O  0.84348762  0.44032813  0.65594933    -0.90200
C3393       C  0.90496447  0.40073417  0.54478113     0.83700
O3394       O  0.79099160  0.42041400  0.62082556    -0.68400
O3395       O  0.79342837  0.40114511  0.00409796    -0.87700
C3396       C  0.80538965  0.39143765  0.61997697     0.84600
C3397       C  0.87275123  0.44936583  0.65033801     1.06100
H3398       H  0.81464294  0.40636715  0.56070107     0.37900
O3399       O  0.82987576  0.42370732  0.55283924    -1.10300
O3400       O  0.83256369  0.49073088  0.51807489    -0.67000
Ni3401     Ni  0.80593127  0.46407006  0.55433765     1.26300
O3402       O  0.83621473  0.39133411  0.61289832    -0.67200
O3403       O  0.77438931  0.45200888  0.52143029    -0.79500
C3404       C  0.77450740  0.01380019  0.58847043     0.83900
O3405       O  0.78386951  0.00659239  0.56003635    -0.66700
Ni3406     Ni  0.84140443  0.40903666  0.51375466     1.27400
Ni3407     Ni  0.86097454  0.42919001  0.58736536     1.26100
H3408       H  0.84614750  0.48846938  0.58974619     0.38500
C3409       C  0.76847867  0.41005423  0.70268951    -0.26900
C3410       C  0.74425815  0.38577276  0.69621851    -0.15000
C3411       C  0.71138353  0.39726115  0.69259194     0.35700
C3412       C  0.70364159  0.42963076  0.70049286    -0.26300
C3413       C  0.72703431  0.44798027  0.71669851    -0.15600
C3414       C  0.76020015  0.44067979  0.71325712     0.36700
N3415       N  0.78556425  0.46275089  0.72272376    -0.89800
H3416       H  0.79445156  0.40586683  0.69950079     0.17900
H3417       H  0.67797828  0.43678750  0.70098985     0.17900
N3418       N  0.68528477  0.37642489  0.68261207    -0.88900
H3419       H  0.80068676  0.46903526  0.70266064     0.35200
H3420       H  0.79976111  0.44964251  0.74086574     0.40300
H3421       H  0.68323126  0.35537736  0.69959058     0.39900
H3422       H  0.69072321  0.36863689  0.65986339     0.34800
C3423       C  0.69543509  0.04965348  0.73656185    -0.26900
C3424       C  0.70182732  0.54286679  0.76763277    -0.15000
C3425       C  0.68713579  0.56333910  0.78903634     0.35700
C3426       C  0.65567081  0.07852320  0.78072372    -0.26300
C3427       C  0.64269474  0.07274403  0.75015573    -0.15600
C3428       C  0.66452042  0.06132863  0.72667215     0.36700
N3429       N  0.65453535  0.05636392  0.69436731    -0.89800
H3430       H  0.70989871  0.03678450  0.71960671     0.17900
H3431       H  0.64133339  0.09091769  0.79805448     0.17900
N3432       N  0.69975666  0.56394093  0.82129424    -0.88900
H3433       H  0.65701908  0.03081463  0.69105827     0.35200
H3434       H  0.67038985  0.07017188  0.67827334     0.40300
H3435       H  0.68148838  0.55513905  0.83768967     0.39900
H3436       H  0.70468878  0.58904636  0.82497223     0.34800
C3437       C  0.64573716  0.48920681  0.84029362    -0.26900
C3438       C  0.65186494  0.49643951  0.80702413    -0.15000
C3439       C  0.62616172  0.49321758  0.78468368     0.35700
C3440       C  0.59614277  0.48003956  0.79573562    -0.26300
C3441       C  0.59305299  0.46523836  0.82770364    -0.15600
C3442       C  0.61743612  0.47136265  0.85065460     0.36700
N3443       N  0.61539600  0.45658337  0.88353931    -0.89800
H3444       H  0.66560697  0.49105798  0.85752334     0.17900
H3445       H  0.57673547  0.47766918  0.77814642     0.17900
N3446       N  0.63205984  0.49735557  0.75045192    -0.88900
H3447       H  0.61716084  0.47594147  0.89880432     0.35200
H3448       H  0.63560149  0.44066860  0.88818181     0.40300
H3449       H  0.61316962  0.51211516  0.73955433     0.39900
H3450       H  0.63004782  0.47389492  0.74140557     0.34800
C3451       C  0.65417220  0.35722843  0.78124407    -0.26900
C3452       C  0.68127007  0.33588827  0.78728823    -0.15000
C3453       C  0.71299008  0.34736158  0.77784310     0.35700
C3454       C  0.71749948  0.38162997  0.76902851    -0.26300
C3455       C  0.69055967  0.40359777  0.76633439    -0.15600
C3456       C  0.65868933  0.39096541  0.77049037     0.36700
N3457       N  0.63108964  0.41306896  0.76690977    -0.89800
H3458       H  0.62956937  0.34887083  0.78781033     0.17900
H3459       H  0.74226758  0.39139867  0.76610025     0.17900
N3460       N  0.74086117  0.32536374  0.77732676    -0.88900
H3461       H  0.61869418  0.41143961  0.78906714     0.35200
H3462       H  0.61540894  0.40445859  0.74944406     0.40300
H3463       H  0.73394841  0.30003067  0.78083425     0.39900
H3464       H  0.75678319  0.33053814  0.79608086     0.34800
C3465       C  0.72171910  0.40430152  0.89767138    -0.26900
C3466       C  0.72300622  0.43170978  0.91647107    -0.15000
C3467       C  0.73135384  0.46415250  0.90199484     0.35700
C3468       C  0.73256559  0.46935914  0.86852302    -0.26300
C3469       C  0.73071742  0.44218934  0.84967521    -0.15600
C3470       C  0.72622838  0.40927009  0.86417358     0.36700
N3471       N  0.72444003  0.38151687  0.84460619    -0.89800
H3472       H  0.71528355  0.37940576  0.90869055     0.17900
H3473       H  0.73522997  0.49482904  0.85709452     0.17900
N3474       N  0.73932611  0.49199343  0.92027899    -0.88900
H3475       H  0.72007218  0.35905694  0.85912341     0.35200
H3476       H  0.74756406  0.37915493  0.83416470     0.40300
H3477       H  0.74217923  0.48444146  0.94498365     0.39900
H3478       H  0.72067796  0.01057596  0.91918295     0.34800
C3479       C  0.84515275  0.28331944  0.00155705    -0.26900
C3480       C  0.83688818  0.29372634  0.96970660    -0.15000
C3481       C  0.85722388  0.31697231  0.95167263     0.35700
C3482       C  0.89012414  0.31924450  0.96075967    -0.26300
C3483       C  0.90087629  0.30507602  0.99173286    -0.15600
C3484       C  0.87567974  0.28742790  0.51517031     0.36700
N3485       N  0.88136261  0.27818930  0.54902364    -0.89800
H3486       H  0.82828648  0.26485537  0.51853994     0.17900
H3487       H  0.90604095  0.33605237  0.94575070     0.17900
N3488       N  0.84500700  0.33727077  0.92375418    -0.88900
H3489       H  0.87750225  0.25224066  0.55385975     0.35200
H3490       H  0.86433280  0.29074427  0.56238135     0.40300
H3491       H  0.83316385  0.32187382  0.90832227     0.39900
H3492       H  0.82701212  0.35315121  0.93179923     0.34800
C3493       C  0.76383045  0.18854685  0.51395284    -0.26900
C3494       C  0.79889479  0.19017046  0.00652745    -0.15000
C3495       C  0.82062142  0.16686993  0.02271320     0.35700
C3496       C  0.80669083  0.13989960  0.54228899    -0.26300
C3497       C  0.77245475  0.13468342  0.54474536    -0.15600
C3498       C  0.75102647  0.16130708  0.53307700     0.36700
N3499       N  0.71651615  0.16100647  0.54070820    -0.89800
H3500       H  0.74707473  0.20705694  0.50248659     0.17900
H3501       H  0.82379477  0.12261650  0.55511787     0.17900
N3502       N  0.85559646  0.17110621  0.02101771    -0.88900
H3503       H  0.70442601  0.18171337  0.52864676     0.35200
H3504       H  0.71419102  0.16347942  0.56549890     0.40300
H3505       H  0.86139280  0.19464103  0.02870478     0.39900
H3506       H  0.86346806  0.17086723  0.99709963     0.34800
C3507       C  0.70966141  0.28120648  0.90019947    -0.26900
C3508       C  0.70063904  0.25254569  0.88417549    -0.15000
C3509       C  0.69731468  0.22183731  0.90404526     0.35700
C3510       C  0.71291091  0.21868163  0.93463723    -0.26300
C3511       C  0.73303509  0.24528441  0.94316749    -0.15600
C3512       C  0.72531459  0.27757775  0.93009274     0.36700
N3513       N  0.73849910  0.30625336  0.94400706    -0.89800
H3514       H  0.70501756  0.30663768  0.88974163     0.17900
H3515       H  0.71504206  0.19395839  0.94783803     0.17900
N3516       N  0.67929318  0.19418836  0.89301857    -0.88900
H3517       H  0.75390076  0.31930188  0.92690512     0.35200
H3518       H  0.71884703  0.32199957  0.94833006     0.40300
H3519       H  0.66042258  0.18796503  0.90961283     0.39900
H3520       H  0.69486675  0.17339102  0.89326869     0.34800
C3521       C  0.79982141  0.51966741  0.84279588    -0.26900
C3522       C  0.80619389  0.49453282  0.86862830    -0.15000
C3523       C  0.80830748  0.46081836  0.86087146     0.35700
C3524       C  0.79808178  0.45286584  0.83014095    -0.26300
C3525       C  0.78238271  0.47751964  0.80895034    -0.15600
C3526       C  0.78758817  0.51158140  0.81318389     0.36700
N3527       N  0.77815566  0.53786242  0.78871840    -0.89800
H3528       H  0.80616354  0.04605609  0.84486079     0.17900
H3529       H  0.79629016  0.42655976  0.82568572     0.17900
N3530       N  0.82012536  0.43471160  0.88416585    -0.88900
H3531       H  0.78157388  0.56168476  0.79682165     0.35200
H3532       H  0.79395376  0.53657086  0.76901978     0.40300
H3533       H  0.80161821  0.41654940  0.88814472     0.39900
H3534       H  0.84028542  0.42335041  0.87409023     0.34800
C3535       C  0.85332871  0.11575333  0.92165449    -0.26900
C3536       C  0.82990867  0.09248528  0.93377271    -0.15000
C3537       C  0.80376819  0.10266720  0.95256434     0.35700
C3538       C  0.80149151  0.13669043  0.95831887    -0.26300
C3539       C  0.82555315  0.16038900  0.94677833    -0.15600
C3540       C  0.85134346  0.14938209  0.92785513     0.36700
N3541       N  0.87603287  0.17209847  0.91486919    -0.89800
H3542       H  0.87337117  0.10787967  0.90708280     0.17900
H3543       H  0.77992987  0.14467946  0.97046677     0.17900
N3544       N  0.78002864  0.07848581  0.96604421    -0.88900
H3545       H  0.87581740  0.17200386  0.88962506     0.35200
H3546       H  0.89833824  0.16186705  0.92311308     0.40300
H3547       H  0.76659076  0.07002878  0.94686024     0.39900
H3548       H  0.76321271  0.08992207  0.98054842     0.34800
C3549       C  0.76169020  0.17960006  0.89421524    -0.26900
C3550       C  0.76767744  0.21435020  0.88964356    -0.15000
C3551       C  0.77017863  0.23149943  0.85872477     0.35700
C3552       C  0.77038478  0.21250873  0.83256448    -0.26300
C3553       C  0.77111538  0.17720809  0.83804669    -0.15600
C3554       C  0.76459852  0.16035731  0.86834810     0.36700
N3555       N  0.76334467  0.12416216  0.87289276    -0.89800
H3556       H  0.75863886  0.16728387  0.91839501     0.17900
H3557       H  0.77431628  0.22495972  0.80843178     0.17900
N3558       N  0.77530892  0.26738786  0.85443323    -0.88900
H3559       H  0.75783245  0.11598867  0.89702972     0.35200
H3560       H  0.78684232  0.11516475  0.86844399     0.40300
H3561       H  0.77642626  0.27581149  0.82974353     0.39900
H3562       H  0.79825385  0.27259281  0.86420932     0.34800
C3563       C  0.91627354  0.24181337  0.89081902    -0.26900
C3564       C  0.93099183  0.22221192  0.91694959    -0.15000
C3565       C  0.91983061  0.22582248  0.94880972     0.35700
C3566       C  0.88872592  0.23843136  0.95242669    -0.26300
C3567       C  0.87148264  0.25361004  0.92563765    -0.15600
C3568       C  0.88734452  0.25956692  0.89567541     0.36700
N3569       N  0.87362589  0.28260518  0.87047416    -0.89800
H3570       H  0.92606334  0.24204376  0.86656624     0.17900
H3571       H  0.87744503  0.23464071  0.97607720     0.17900
N3572       N  0.93898880  0.21742544  0.97765683    -0.88900
H3573       H  0.87521146  0.30659721  0.87840411     0.35200
H3574       H  0.88871256  0.28395414  0.85003994     0.40300
H3575       H  0.96382858  0.21473322  0.97243556     0.39900
H3576       H  0.92974635  0.19524216  0.98989813     0.34800
C3577       C  0.96553133  0.34659780  0.61014374    -0.26900
C3578       C  0.97003553  0.32083774  0.58986762    -0.15000
C3579       C  0.97454636  0.28720288  0.60361098     0.35700
C3580       C  0.96986011  0.27982932  0.63670192    -0.26300
C3581       C  0.96479821  0.30556384  0.65675327    -0.15600
C3582       C  0.96316926  0.33919341  0.64347827     0.36700
N3583       N  0.95858516  0.36588179  0.66364413    -0.89800
H3584       H  0.96165004  0.37242930  0.60027760     0.17900
H3585       H  0.97123947  0.25386373  0.64701055     0.17900
N3586       N  0.98498904  0.26031322  0.58524048    -0.88900
H3587       H  0.93717680  0.37889704  0.65620571     0.35200
H3588       H  0.97846528  0.38246631  0.66010707     0.40300
H3589       H  0.99121595  0.26899966  0.56144568     0.39900
H3590       H  0.96583870  0.24283203  0.58478665     0.34800
C3591       C  0.86199229  0.27091669  0.73543586    -0.26900
C3592       C  0.88531884  0.25983035  0.71419282    -0.15000
C3593       C  0.87738817  0.26069654  0.68098765     0.35700
C3594       C  0.85194762  0.28152234  0.66883267    -0.26300
C3595       C  0.83197012  0.29820913  0.68974485    -0.15600
C3596       C  0.83420827  0.28834490  0.72348636     0.36700
N3597       N  0.80924364  0.29640392  0.74578204    -0.89800
H3598       H  0.86732483  0.27076518  0.76097403     0.17900
H3599       H  0.84983860  0.28620374  0.64279221     0.17900
N3600       N  0.89764865  0.24495894  0.65848246    -0.88900
H3601       H  0.80041770  0.27385296  0.75769005     0.35200
H3602       H  0.81997098  0.31030571  0.76323290     0.40300
H3603       H  0.91778996  0.23318443  0.67034873     0.39900
H3604       H  0.90674705  0.26381564  0.64157661     0.34800
C3605       C  0.96610539  0.37635860  0.73204051    -0.26900
C3606       C  0.93738406  0.35681541  0.73518300    -0.15000
C3607       C  0.90653919  0.37195841  0.73232580     0.35700
C3608       C  0.90473376  0.40636034  0.72391481    -0.26300
C3609       C  0.93356650  0.42560118  0.71917817    -0.15600
C3610       C  0.96435161  0.41111601  0.72657384     0.36700
N3611       N  0.99357430  0.43145687  0.72688294    -0.89800
H3612       H  0.98992016  0.36444440  0.73243285     0.17900
H3613       H  0.88074105  0.41706522  0.71844524     0.17900
N3614       N  0.87716381  0.35220679  0.73595250    -0.88900
H3615       H  0.51425955  0.41771037  0.73130644     0.35200
H3616       H  0.99098133  0.44728276  0.74543543     0.40300
H3617       H  0.86305512  0.36133068  0.75425140     0.39900
H3618       H  0.86392439  0.35607918  0.71424802     0.34800
C3619       C  0.96921246  0.37287942  0.80809876    -0.26900
C3620       C  0.50233683  0.38361485  0.80162976    -0.15000
C3621       C  0.52318959  0.35753979  0.79101817     0.35700
C3622       C  0.50970878  0.32729317  0.78299464    -0.26300
C3623       C  0.97678763  0.31954264  0.78549381    -0.15600
C3624       C  0.95716547  0.34107128  0.80226966     0.36700
N3625       N  0.92402434  0.33184008  0.81056043    -0.89800
H3626       H  0.95315807  0.38970498  0.81970551     0.17900
H3627       H  0.52513574  0.31009567  0.77109572     0.17900
N3628       N  0.55795453  0.36041754  0.78663929    -0.88900
H3629       H  0.90836470  0.35034522  0.79965213     0.35200
H3630       H  0.92174580  0.33224391  0.83566082     0.40300
H3631       H  0.56960672  0.36494490  0.80825003     0.39900
H3632       H  0.56314435  0.37858468  0.76748087     0.34800
C3633       C  0.53542502  0.30063537  0.67861172    -0.26900
C3634       C  0.01730287  0.27158369  0.69607532    -0.15000
C3635       C  0.02223598  0.23838185  0.68906818     0.35700
C3636       C  0.53902610  0.23502191  0.66195745    -0.26300
C3637       C  0.54862502  0.26158909  0.63854493    -0.15600
C3638       C  0.54801130  0.29476589  0.64813359     0.36700
N3639       N  0.55962832  0.32264781  0.62674215    -0.89800
H3640       H  0.53270229  0.32648617  0.68427771     0.17900
H3641       H  0.54285177  0.20891294  0.65830446     0.17900
N3642       N  0.01017475  0.21103749  0.71072610    -0.88900
H3643       H  0.54029063  0.33968927  0.62230155     0.35200
H3644       H  0.57829424  0.33470271  0.63865311     0.40300
H3645       H  0.99392780  0.19695349  0.69781424     0.39900
H3646       H  0.03016769  0.19571215  0.71781880     0.34800
C3647       C  0.91432937  0.23206065  0.79358931    -0.26900
C3648       C  0.92876577  0.22272577  0.76490548    -0.15000
C3649       C  0.91607862  0.19502359  0.75060935     0.35700
C3650       C  0.88443878  0.18401778  0.75870027    -0.26300
C3651       C  0.86669428  0.19884478  0.78265009    -0.15600
C3652       C  0.88291853  0.22002375  0.80249230     0.36700
N3653       N  0.86627304  0.23251561  0.82910544    -0.89800
H3654       H  0.92444829  0.25289763  0.80540731     0.17900
H3655       H  0.87298938  0.16573354  0.74454720     0.17900
N3656       N  0.93302675  0.18189637  0.72434282    -0.88900
H3657       H  0.85926119  0.21203782  0.84526653     0.35200
H3658       H  0.84503122  0.24509750  0.82042517     0.40300
H3659       H  0.91751815  0.18370819  0.70409717     0.39900
H3660       H  0.93723962  0.15627842  0.73088488     0.34800
C3661       C  0.59288677  0.13340930  0.52921283    -0.26900
C3662       C  0.59356977  0.10793008  0.55515598    -0.15000
C3663       C  0.60659460  0.11683625  0.58497463     0.35700
C3664       C  0.60379635  0.14978877  0.59229643    -0.26300
C3665       C  0.59379706  0.17450533  0.56851719    -0.15600
C3666       C  0.59194359  0.16715503  0.53582742     0.36700
N3667       N  0.58550580  0.19259273  0.50975318    -0.89800
H3668       H  0.58878588  0.12742386  0.50458695     0.17900
H3669       H  0.60998863  0.15606275  0.61645424     0.17900
N3670       N  0.62531566  0.09398844  0.60643028    -0.88900
H3671       H  0.60500305  0.20972743  0.50818502     0.35200
H3672       H  0.56401467  0.20527488  0.51501406     0.40300
H3673       H  0.61530248  0.09356578  0.62971358     0.39900
H3674       H  0.64913948  0.10367270  0.60759526     0.34800
C3675       C  0.53216246  0.08110864  0.65994524    -0.26900
C3676       C  0.54909727  0.05607260  0.67869235    -0.15000
C3677       C  0.54765806  0.02243789  0.67193015     0.35700
C3678       C  0.53478667  0.01549199  0.64215093    -0.26300
C3679       C  0.52382123  0.04226675  0.62032854    -0.15600
C3680       C  0.51856962  0.07410372  0.63096829     0.36700
N3681       N  0.50236798  0.10030942  0.61121489    -0.89800
H3682       H  0.53019115  0.10636022  0.66749852     0.17900
H3683       H  0.53769019  0.99049982  0.63429927     0.17900
N3684       N  0.56005929  0.99606294  0.69464136    -0.88900
H3685       H  0.98397533  0.11264669  0.62034675     0.35200
H3686       H  0.51797164  0.12129871  0.60933200     0.40300
H3687       H  0.57836350  0.98313083  0.68335678     0.39900
H3688       H  0.54086501  0.97914907  0.70056891     0.34800
C3689       C  0.64247484  0.03024073  0.54770512    -0.26900
C3690       C  0.62420283  0.01899238  0.57533471    -0.15000
C3691       C  0.63906902  0.01733133  0.60612060     0.35700
C3692       C  0.66945096  0.03275500  0.60907534    -0.26300
C3693       C  0.68601197  0.04745695  0.58148096    -0.15600
C3694       C  0.67447304  0.04142210  0.55046155     0.36700
N3695       N  0.69473602  0.04711231  0.52203501    -0.89800
H3696       H  0.63124084  0.03272817  0.52396643     0.17900
H3697       H  0.67850522  0.03513835  0.63324356     0.17900
N3698       N  0.62270354  0.00310883  0.63491317    -0.88900
H3699       H  0.68208466  0.04093651  0.50137976     0.35200
H3700       H  0.71460488  0.03052521  0.52511870     0.40300
H3701       H  0.60121274  0.99067558  0.62903468     0.39900
H3702       H  0.61605179  0.02297023  0.64826593     0.34800
C3703       C  0.95315274  0.04229754  0.60547969    -0.26900
C3704       C  0.95896182  0.01047087  0.62261085    -0.15000
C3705       C  0.97098790  0.48078558  0.60501809     0.35700
C3706       C  0.48137239  0.98946378  0.57272739    -0.26300
C3707       C  0.48581820  0.02288054  0.56172782    -0.15600
C3708       C  0.46449721  0.04648567  0.57334002     0.36700
N3709       N  0.45815019  0.07820993  0.55515538    -0.89800
H3710       H  0.93943219  0.06141800  0.61655237     0.17900
H3711       H  0.49545449  0.47356044  0.56086176     0.17900
N3712       N  0.96991946  0.44544339  0.61532276    -0.88900
H3713       H  0.46844086  0.07819671  0.53204419     0.35200
H3714       H  0.43276546  0.08000948  0.55157763     0.40300
H3715       H  0.94722663  0.43806113  0.62515476     0.39900
H3716       H  0.98994791  0.43834450  0.63018474     0.34800
C3717       C  0.52594782  0.07827792  0.97684411    -0.26900
C3718       C  0.53692138  0.08860250  0.50600604    -0.15000
C3719       C  0.52331362  0.11875614  0.51567103     0.35700
C3720       C  0.50982685  0.14260210  0.99218011    -0.26300
C3721       C  0.50584486  0.13336124  0.96091203    -0.15600
C3722       C  0.50691555  0.09900268  0.95586606     0.36700
N3723       N  0.48859420  0.08555214  0.93022067    -0.89800
H3724       H  0.53113223  0.05342034  0.97024785     0.17900
H3725       H  0.50268793  0.16645106  0.49854841     0.17900
N3726       N  0.52169406  0.12571438  0.54877169    -0.88900
H3727       H  0.49184933  0.05948149  0.93082085     0.35200
H3728       H  0.46367743  0.08948595  0.93458122     0.40300
H3729       H  0.53226476  0.14923187  0.55096466     0.39900
H3730       H  0.49688416  0.12886503  0.55401173     0.34800
C3731       C  0.60409612  0.45561766  0.55120762    -0.26900
C3732       C  0.58812757  0.97996289  0.53007744    -0.15000
C3733       C  0.59822530  0.98638114  0.49762436     0.35700
C3734       C  0.63057110  0.47734296  0.98727170    -0.26300
C3735       C  0.64962427  0.45793686  0.51299942    -0.15600
C3736       C  0.63662289  0.44808261  0.54444282     0.36700
N3737       N  0.65563145  0.43075511  0.57004246    -0.89800
H3738       H  0.59527303  0.44923573  0.57575044     0.17900
H3739       H  0.63669244  0.48263932  0.96206044     0.17900
N3740       N  0.58169270  0.00965904  0.97367658    -0.88900
H3741       H  0.67545841  0.44602329  0.57528147     0.35200
H3742       H  0.66417842  0.40790121  0.56302689     0.40300
H3743       H  0.58183235  0.03412604  0.98048205     0.39900
H3744       H  0.55785448  0.00032140  0.97167584     0.34800
C3745       C  0.54390086  0.52937072  0.03236569     0.44900
H3746       H  0.53074291  0.51902880  0.01212429    -0.04100
C3747       C  0.57370145  0.55076106  0.08159859     0.44900
H3748       H  0.58438235  0.55758484  0.10439302    -0.04100
C3749       C  0.55663902  0.56613768  0.02663414    -0.17800
C3750       C  0.52186254  0.53147306  0.06106190    -0.17600
C3751       C  0.57342392  0.50786536  0.04489586    -0.18000
C3752       C  0.57550632  0.57641056  0.05195878    -0.17900
C3753       C  0.53786486  0.54221579  0.08698371    -0.17500
C3754       C  0.58945593  0.52029024  0.07039493    -0.17800
C3755       C  0.97340346  0.76962986  0.24594489     0.44900
H3756       H  0.99179185  0.75580851  0.26197978    -0.04100
C3757       C  0.93050610  0.80224673  0.20798502     0.44900
H3758       H  0.91221059  0.81637401  0.19194480    -0.04100
C3759       C  0.98571164  0.78048583  0.21087034    -0.17800
C3760       C  0.94149524  0.74986444  0.24129651    -0.17600
C3761       C  0.96095759  0.80256132  0.25837707    -0.18000
C3762       C  0.96227151  0.79690919  0.19150075    -0.17900
C3763       C  0.91954402  0.76737974  0.22082453    -0.17500
C3764       C  0.93946072  0.81984484  0.23733854    -0.17800
C3765       C  0.50130465  0.66031911  0.43357677     0.85900
C3766       C  0.52007218  0.69306943  0.43511499    -0.54300
C3767       C  0.51081352  0.71792625  0.41216496     0.08800
C3768       C  0.98312913  0.70497693  0.38697605     0.19800
C3769       C  0.96207255  0.66966281  0.43220179    -0.55000
C3770       C  0.95486752  0.69615571  0.40988264     0.08900
C3771       C  0.51025495  0.65079478  0.40040748    -0.54600
C3772       C  0.99382895  0.66895656  0.37553990     0.09500
H3773       H  0.53719696  0.69718928  0.45453700     0.14000
H3774       H  0.97751234  0.72416820  0.36653731    -0.00200
H3775       H  0.94536389  0.65996011  0.45121962     0.14300
H3776       H  0.52357063  0.62786358  0.39690138     0.14100
C3777       C  0.78868549  0.66635193  0.25515397     0.85900
C3778       C  0.81309269  0.69531182  0.25909116    -0.54300
C3779       C  0.83286603  0.69080594  0.28581260     0.08800
C3780       C  0.82359830  0.66032236  0.30863270     0.19800
C3781       C  0.81221417  0.63408350  0.25940082    -0.55000
C3782       C  0.83120553  0.63194937  0.28836604     0.08900
C3783       C  0.76846715  0.66210432  0.28561351    -0.54600
C3784       C  0.78618738  0.66070268  0.31293276     0.09500
H3785       H  0.81965134  0.71315054  0.23857579     0.14000
H3786       H  0.83703724  0.65877197  0.33214940    -0.00200
H3787       H  0.81523985  0.61687967  0.24087451     0.14300
H3788       H  0.74199533  0.66572306  0.28612562     0.14100
C3789       C  0.82267243  0.50595501  0.39979804     0.85900
C3790       C  0.81914255  0.98867453  0.43237087    -0.54300
C3791       C  0.83975570  0.00184365  0.45477637     0.08800
C3792       C  0.86145061  0.53478563  0.43820513     0.19800
C3793       C  0.81311117  0.54269746  0.40559866    -0.55000
C3794       C  0.83318194  0.55718554  0.42635487     0.08900
C3795       C  0.85910588  0.50260157  0.39316222    -0.54600
C3796       C  0.87747708  0.52718826  0.40343096     0.09500
H3797       H  0.80313267  0.96704866  0.43803761     0.14000
H3798       H  0.87870158  0.54677516  0.45447077    -0.00200
H3799       H  0.79159935  0.55563191  0.39507143     0.14300
H3800       H  0.86549159  0.98903085  0.37214919     0.14100
O3801       O  0.89428946  0.53763791  0.25233233    -0.81500
O3802       O  0.94702431  0.63384313  0.35609038    -0.66200
O3803       O  0.92233308  0.57154179  0.29499918    -1.12800
C3804       C  0.50763808  0.50175555  0.33846264     1.05400
O3805       O  0.99915989  0.62369574  0.34251396    -0.79400
O3806       O  0.53229763  0.57592565  0.31319037    -0.66900
Ni3807     Ni  0.88761892  0.54114014  0.29787618     1.34900
C3808       C  0.52301086  0.58220250  0.28402781     0.84200
O3809       O  0.88534207  0.62096166  0.31577480    -0.79900
O3810       O  0.85914834  0.57957596  0.28981194    -0.90200
C3811       C  0.97803675  0.64262104  0.35504241     0.83700
O3812       O  0.88070393  0.53870371  0.34434408    -0.68400
O3813       O  0.51344055  0.52368339  0.35913971    -0.87700
C3814       C  0.88968110  0.54930910  0.37133964     0.84600
C3815       C  0.86063641  0.60964217  0.29850458     1.06100
H3816       H  0.95643352  0.54936437  0.35394350     0.37900
O3817       O  0.96428504  0.56611808  0.33736511    -1.10300
O3818       O  0.99109571  0.57844905  0.27599959    -0.67000
Ni3819     Ni  0.95998141  0.54468384  0.29856918     1.26300
O3820       O  0.90828351  0.57526953  0.36980626    -0.67200
O3821       O  0.99559928  0.01124815  0.30980958    -0.79500
C3822       C  0.92090653  0.52759941  0.23981331     0.83900
O3823       O  0.94889647  0.52623769  0.25594154    -0.66700
Ni3824     Ni  0.50709585  0.57392113  0.35222588     1.27400
Ni3825     Ni  0.92866211  0.59866198  0.32923297     1.26100
H3826       H  0.92247231  0.58568151  0.27464611     0.38500
C3827       C  0.81767410  0.72106206  0.41967004     0.44900
H3828       H  0.82820074  0.71129024  0.39768037    -0.04100
C3829       C  0.79079315  0.74551557  0.46906495     0.44900
H3830       H  0.77910984  0.75607403  0.49009251    -0.04100
C3831       C  0.81868925  0.69643841  0.45010360    -0.17800
C3832       C  0.83405582  0.75297755  0.42825104    -0.17600
C3833       C  0.78174745  0.72892505  0.41583044    -0.18000
C3834       C  0.80573116  0.71004657  0.47679572    -0.17900
C3835       C  0.81874177  0.76728097  0.45315928    -0.17500
C3836       C  0.76682139  0.74011217  0.44202066    -0.17800
C3837       C  0.67827049  0.93931375  0.99889529     0.85900
C3838       C  0.71049141  0.93426616  0.01750938    -0.54300
C3839       C  0.73299683  0.91402313  0.00386975     0.08800
C3840       C  0.71637684  0.89589504  0.47306017     0.19800
C3841       C  0.68854469  0.94910704  0.46291606    -0.55000
C3842       C  0.70887785  0.92676967  0.45014716     0.08900
C3843       C  0.66386198  0.90489259  0.99835192    -0.54600
C3844       C  0.68028807  0.88174768  0.48190643     0.09500
H3845       H  0.71699913  0.95036666  0.03624463     0.14000
H3846       H  0.73293394  0.87740135  0.46315925    -0.00200
H3847       H  0.68198419  0.97262598  0.44923606     0.14300
H3848       H  0.63819512  0.90050584  0.00539903     0.14100
C3849       C  0.68158094  0.75816689  0.35117826     0.85900
C3850       C  0.67930432  0.73416184  0.32417321    -0.54300
C3851       C  0.66006961  0.74720276  0.29818435     0.08800
C3852       C  0.64383406  0.78250723  0.30451989     0.19800
C3853       C  0.69433582  0.79114610  0.33155466    -0.55000
C3854       C  0.67431550  0.80323413  0.30681483     0.08900
C3855       C  0.64621500  0.76253055  0.36088649    -0.54600
C3856       C  0.62926637  0.78316769  0.34022796     0.09500
H3857       H  0.69439750  0.71181140  0.32365347     0.14000
H3858       H  0.62653607  0.79190172  0.28496014    -0.00200
H3859       H  0.71723427  0.80355487  0.33665575     0.14300
H3860       H  0.63879794  0.75861485  0.38631665     0.14100
C3861       C  0.51336406  0.91090965  0.32122700     0.85900
C3862       C  0.99700275  0.94220269  0.32490887    -0.54300
C3863       C  0.51099392  0.96357049  0.34683303     0.08800
C3864       C  0.54251930  0.94417062  0.36399593     0.19800
C3865       C  0.54822496  0.92417199  0.31184131    -0.55000
C3866       C  0.56336981  0.94194684  0.33435100     0.08900
C3867       C  0.51346683  0.89371537  0.35511696    -0.54600
C3868       C  0.53506749  0.90497184  0.37573110     0.09500
H3869       H  0.97695053  0.95086475  0.30887906     0.14000
H3870       H  0.55321964  0.95835041  0.38320460     0.02600
H3871       H  0.55696784  0.92542614  0.28717831     0.14300
H3872       H  0.50127237  0.86937453  0.35985470     0.14100
O3873       O  0.51747044  0.77773603  0.39646578    -0.81500
O3874       O  0.64480536  0.86416154  0.43650802    -0.66200
O3875       O  0.58027639  0.79651794  0.41740463    -1.12800
C3876       C  0.51733577  0.84483698  0.99819472     1.05400
O3877       O  0.63559926  0.84399359  0.48749594    -0.79400
O3878       O  0.58672384  0.81780229  0.02505476    -0.66900
Ni3879     Ni  0.55465547  0.80280590  0.37789286     1.34900
C3880       C  0.58675246  0.78677414  0.02138433     0.84200
O3881       O  0.63442974  0.82188974  0.38344934    -0.79900
O3882       O  0.58980630  0.82496659  0.35399661    -0.90200
C3883       C  0.65445086  0.86011065  0.46660642     0.83700
O3884       O  0.53955851  0.84504702  0.39263952    -0.68400
O3885       O  0.54164568  0.86535992  0.00248842    -0.87700
C3886       C  0.55527235  0.87336085  0.38984982     0.84600
C3887       C  0.61853512  0.81364816  0.35796955     1.06100
H3888       H  0.56429190  0.85895046  0.44800204     0.37900
O3889       O  0.57880385  0.84116190  0.45617816    -1.10300
O3890       O  0.58019152  0.77576167  0.49149450    -0.67000
Ni3891     Ni  0.55338577  0.80181339  0.45501864     1.26300
O3892       O  0.58646570  0.87254744  0.39582875    -0.67200
O3893       O  0.52250822  0.81474938  0.48772415    -0.79500
C3894       C  0.51949460  0.75386822  0.41901748     0.83900
O3895       O  0.53013518  0.76021186  0.44736279    -0.66700
Ni3896     Ni  0.58978306  0.85706022  0.99631320     1.27400
Ni3897     Ni  0.60979173  0.83378718  0.42195430     1.26100
H3898       H  0.59170354  0.77519415  0.41953249     0.38500
C3899       C  0.76285994  0.60634321  0.06913490     0.85900
C3900       C  0.78255596  0.57371581  0.07345841    -0.54300
C3901       C  0.76922526  0.54952918  0.09515088     0.08800
C3902       C  0.73878045  0.56364243  0.11399311     0.19800
C3903       C  0.72774398  0.59405791  0.06211494    -0.55000
C3904       C  0.71567070  0.57041567  0.08536263     0.08900
C3905       C  0.76200643  0.61959564  0.10180931    -0.54600
C3906       C  0.74567080  0.60058431  0.12495312     0.09500
H3907       H  0.80145369  0.56800378  0.05634897     0.14000
H3908       H  0.73077541  0.54536496  0.13425625    -0.00200
H3909       H  0.71483169  0.60202187  0.03980898     0.14300
H3910       H  0.76865325  0.64575165  0.10442719     0.14100
C3911       C  0.55058260  0.58729770  0.25781103     0.85900
C3912       C  0.58533224  0.57488124  0.26919548    -0.54300
C3913       C  0.60829285  0.57511916  0.24443713     0.08800
C3914       C  0.59355673  0.58505529  0.21104459     0.19800
C3915       C  0.55938541  0.62262637  0.23829859    -0.55000
C3916       C  0.58381145  0.62088419  0.21432070     0.08900
C3917       C  0.54138229  0.56418428  0.23289713    -0.54600
C3918       C  0.56286840  0.56332208  0.20893722     0.09500
H3919       H  0.59150094  0.56849838  0.29455207     0.14000
H3920       H  0.60840887  0.58412673  0.18912997    -0.00200
H3921       H  0.55178178  0.64629118  0.24677483     0.14300
H3922       H  0.51768874  0.55149732  0.23208402     0.14100
C3923       C  0.56996811  0.75446615  0.11024239     0.85900
C3924       C  0.56679871  0.77468102  0.07745495    -0.54300
C3925       C  0.58889911  0.76557893  0.05449440     0.08800
C3926       C  0.61315520  0.73574731  0.06975715     0.19800
C3927       C  0.56596336  0.71736994  0.10085858    -0.55000
C3928       C  0.58841579  0.70884667  0.07859517     0.08900
C3929       C  0.60572944  0.76171687  0.11845019    -0.54600
C3930       C  0.62692841  0.74127135  0.10558229     0.09500
H3931       H  0.54880924  0.79461002  0.07259191     0.14000
H3932       H  0.63250008  0.72842410  0.05295887    -0.00200
H3933       H  0.54686794  0.69985415  0.10971633     0.14300
H3934       H  0.61163667  0.77211884  0.14122419     0.14100
O3935       O  0.63823346  0.72438486  0.25083810    -0.81500
O3936       O  0.69777125  0.63302680  0.14496882    -0.66200
O3937       O  0.66891070  0.69134226  0.20840579    -1.12800
C3938       C  0.75525078  0.76196508  0.16973798     1.05400
O3939       O  0.74874673  0.64078349  0.16337731    -0.79400
O3940       O  0.77862195  0.68476437  0.19834093    -0.66900
Ni3941     Ni  0.63071006  0.71749951  0.20560100     1.34900
C3942       C  0.76571215  0.67829151  0.22608481     0.84200
O3943       O  0.63477691  0.64081028  0.18427618    -0.79900
O3944       O  0.60669562  0.67618204  0.21548799    -0.90200
C3945       C  0.72862131  0.62392041  0.14726477     0.83700
O3946       O  0.62002052  0.71397504  0.16055842    -0.68400
O3947       O  0.76436262  0.73940065  0.15103004    -0.87700
C3948       C  0.63716080  0.71466313  0.13468568     0.84600
C3949       C  0.60971191  0.64780664  0.20333209     1.06100
H3950       H  0.70784902  0.71544055  0.15151933     0.37900
O3951       O  0.71391874  0.69833066  0.16852727    -1.10300
O3952       O  0.73543957  0.68672117  0.23114688    -0.67000
Ni3953     Ni  0.70593787  0.71989263  0.20658976     1.26300
O3954       O  0.66063691  0.69370218  0.13471939    -0.67200
O3955       O  0.74145445  0.75300445  0.19755734    -0.79500
C3956       C  0.66413037  0.73582457  0.26390378     0.83900
O3957       O  0.69237740  0.73828181  0.24847295    -0.66700
Ni3958     Ni  0.75708523  0.68950211  0.15687619     1.27400
Ni3959     Ni  0.67813049  0.66554714  0.17382899     1.26100
H3960       H  0.66945049  0.67665535  0.22842035     0.38500
C3961       C  0.73282701  0.98557424  0.26559508     0.44900
H3962       H  0.74969432  0.00108697  0.24947855    -0.04100
C3963       C  0.69184050  0.95021073  0.30261201     0.44900
H3964       H  0.67413401  0.93491704  0.31841933    -0.04100
C3965       C  0.74901195  0.96656692  0.29578122    -0.17800
C3966       C  0.70612701  0.00662865  0.27999200    -0.17600
C3967       C  0.71410820  0.95839748  0.24851919    -0.18000
C3968       C  0.72643837  0.94826494  0.31511826    -0.17900
C3969       C  0.68397866  0.98736129  0.29852770    -0.17500
C3970       C  0.69372756  0.93921122  0.26917194    -0.17800
C3971       C  0.94128275  0.50167538  0.15486214     0.85900
C3972       C  0.93819369  0.52705660  0.18059394    -0.54300
C3973       C  0.91772853  0.51560426  0.20597038     0.08800
C3974       C  0.90213672  0.98033699  0.20052106     0.19800
C3975       C  0.95340486  0.96968869  0.17527723    -0.55000
C3976       C  0.93199341  0.95835905  0.19914894     0.08900
C3977       C  0.90637235  0.49676554  0.14358330    -0.54600
C3978       C  0.88790865  0.97958311  0.16509485     0.09500
H3979       H  0.95395352  0.54902193  0.18109024     0.14000
H3980       H  0.88423524  0.97230324  0.21989805    -0.00200
H3981       H  0.97679982  0.95801096  0.17234187     0.14300
H3982       H  0.90013349  0.49915062  0.11776956     0.14100
C3983       C  0.75547656  0.85563858  0.17910442     0.85900
C3984       C  0.73979711  0.82129736  0.17657387    -0.54300
C3985       C  0.75883760  0.80038047  0.15930850     0.08800
C3986       C  0.79124269  0.82022399  0.14433223     0.19800
C3987       C  0.79020043  0.84537858  0.19361764    -0.55000
C3988       C  0.80803936  0.82449174  0.17619749     0.08900
C3989       C  0.75752522  0.86878443  0.14382959    -0.54600
C3990       C  0.78413054  0.85889443  0.12911878     0.09500
H3991       H  0.71899590  0.81232807  0.19129548     0.14000
H3992       H  0.80405597  0.80579527  0.12675328    -0.00200
H3993       H  0.79746666  0.85150825  0.21753380     0.14300
H3994       H  0.74428433  0.89162767  0.13503471     0.14100
C3995       C  0.92913498  0.82279671  0.00741742     0.85900
C3996       C  0.95823115  0.83478861  0.48634476    -0.54300
C3997       C  0.98169415  0.85329303  0.00369664     0.08800
C3998       C  0.96646470  0.86346367  0.03677132     0.19800
C3999       C  0.94409079  0.80686403  0.03906139    -0.55000
C4000       C  0.96271410  0.82831136  0.05514854     0.08900
C4001       C  0.91212320  0.85412546  0.01528884    -0.54600
C4002       C  0.92920258  0.87552204  0.03132003     0.09500
H4003       H  0.96441285  0.82270438  0.46472659     0.14000
H4004       H  0.98209143  0.88130770  0.04898049    -0.00200
H4005       H  0.94000518  0.78095581  0.04816062     0.14300
H4006       H  0.88489034  0.85849821  0.50907686     0.14100
O4007       O  0.77138204  0.48882534  0.11048550    -0.81500
O4008       O  0.89424927  0.89685516  0.07341468    -0.66200
O4009       O  0.83391631  0.96777030  0.09122477    -1.12800
C4010       C  0.76890823  0.92250288  0.50843479     1.05400
O4011       O  0.88852524  0.91743760  0.02208018    -0.79400
O4012       O  0.84039651  0.94926036  0.48460926    -0.66900
Ni4013     Ni  0.80942148  0.96360914  0.13147100     1.34900
C4014       C  0.83931557  0.98041301  0.48822513     0.84200
O4015       O  0.88741937  0.93915083  0.12429920    -0.79900
O4016       O  0.84418296  0.94060170  0.15519535    -0.90200
C4017       C  0.90546633  0.90033091  0.04411106     0.83700
O4018       O  0.79146434  0.92043737  0.12072093    -0.68400
O4019       O  0.79293260  0.90193427  0.50402371    -0.87700
C4020       C  0.80584147  0.89148020  0.11976444     0.84600
C4021       C  0.87342700  0.94963885  0.14950193     1.06100
H4022       H  0.81516731  0.90612754  0.06005042     0.37900
O4023       O  0.83034050  0.92351118  0.05209286    -1.10300
O4024       O  0.83284648  0.99064381  0.01740076    -0.67000
Ni4025     Ni  0.80632556  0.96388751  0.05358543     1.26300
O4026       O  0.83662656  0.89138083  0.11236503    -0.67200
O4027       O  0.77490152  0.95196657  0.02065691    -0.79500
C4028       C  0.77475712  0.51281149  0.08805973     0.83900
O4029       O  0.78422705  0.50571603  0.05967857    -0.66700
Ni4030     Ni  0.84181133  0.90889353  0.01288032     1.27400
Ni4031     Ni  0.86143965  0.92916939  0.08659296     1.26100
H4032       H  0.84656543  0.98840728  0.08879215     0.38500
C4033       C  0.76549314  0.91007711  0.20119170    -0.26900
C4034       C  0.74187446  0.88507359  0.19523512    -0.15000
C4035       C  0.70866045  0.89562864  0.19236161     0.35700
C4036       C  0.70011471  0.92737933  0.20159131    -0.26300
C4037       C  0.72352139  0.94647618  0.21717948    -0.15600
C4038       C  0.75669762  0.94034666  0.21224042     0.36700
N4039       N  0.78174381  0.96348975  0.22016066    -0.89800
H4040       H  0.79145351  0.90665888  0.19707852     0.17900
H4041       H  0.67427767  0.93364164  0.20292367     0.17900
N4042       N  0.68311228  0.87455108  0.18166267    -0.88900
H4043       H  0.79551907  0.97024386  0.19924374     0.35200
H4044       H  0.79731758  0.95110126  0.23754445     0.40300
H4045       H  0.68149965  0.85295031  0.19799728     0.39900
H4046       H  0.68891791  0.86774397  0.15861788     0.34800
C4047       C  0.69738965  0.55000292  0.23598305    -0.26900
C4048       C  0.70129809  0.04240429  0.26956841    -0.15000
C4049       C  0.68608949  0.06264698  0.29087795     0.35700
C4050       C  0.65747833  0.57865370  0.28011819    -0.26300
C4051       C  0.64445057  0.57265523  0.24962076    -0.15600
C4052       C  0.66646809  0.56160493  0.22604092     0.36700
N4053       N  0.65685156  0.55718036  0.19351390    -0.89800
H4054       H  0.71200879  0.53728552  0.21903090     0.17900
H4055       H  0.64313801  0.59100610  0.29746973     0.17900
N4056       N  0.69779253  0.06276181  0.32351612    -0.88900
H4057       H  0.65926253  0.53170269  0.18987928     0.35200
H4058       H  0.67292093  0.57112422  0.17774805     0.40300
H4059       H  0.67898248  0.05407174  0.33932351     0.39900
H4060       H  0.70283244  0.08775159  0.32755937     0.34800
C4061       C  0.64390327  0.98842864  0.34099301    -0.26900
C4062       C  0.65075902  0.99618197  0.30795226    -0.15000
C4063       C  0.62573226  0.99313867  0.28487414     0.35700
C4064       C  0.59550426  0.97967298  0.29501958    -0.26300
C4065       C  0.59160106  0.96465810  0.32685190    -0.15600
C4066       C  0.61564018  0.97009664  0.35038577     0.36700
N4067       N  0.61345770  0.95395313  0.38277999    -0.89800
H4068       H  0.66341066  0.98993208  0.35868690     0.17900
H4069       H  0.57661580  0.97740252  0.27688974     0.17900
N4070       N  0.63283393  0.99728586  0.25082609    -0.88900
H4071       H  0.61493049  0.97254814  0.39890006     0.35200
H4072       H  0.63373857  0.93804397  0.38694983     0.40300
H4073       H  0.61425446  0.01186227  0.23914954     0.39900
H4074       H  0.63148678  0.97370916  0.24187470     0.34800
C4075       C  0.65188347  0.85641893  0.28238609    -0.26900
C4076       C  0.67920623  0.83513698  0.28697120    -0.15000
C4077       C  0.71067559  0.84701749  0.27726799     0.35700
C4078       C  0.71480155  0.88137737  0.26906621    -0.26300
C4079       C  0.68773729  0.90317913  0.26764108    -0.15600
C4080       C  0.65603097  0.89041840  0.27276738     0.36700
N4081       N  0.62838318  0.91251035  0.27134780    -0.89800
H4082       H  0.62749793  0.84773414  0.28943749     0.17900
H4083       H  0.73945048  0.89132560  0.26559734     0.17900
N4084       N  0.73872036  0.82535183  0.27601755    -0.88900
H4085       H  0.61682423  0.90957697  0.29395356     0.35200
H4086       H  0.61204867  0.90489159  0.25395648     0.40300
H4087       H  0.73208824  0.79993046  0.27928973     0.39900
H4088       H  0.75484176  0.83039474  0.29465897     0.34800
C4089       C  0.71872046  0.90384370  0.39834384    -0.26900
C4090       C  0.72087784  0.93138147  0.41693954    -0.15000
C4091       C  0.72964097  0.96355835  0.40226058     0.35700
C4092       C  0.73103512  0.96838996  0.36880872    -0.26300
C4093       C  0.72902230  0.94102371  0.35020938    -0.15600
C4094       C  0.72337764  0.90837951  0.36487133     0.36700
N4095       N  0.72032536  0.88061262  0.34543083    -0.89800
H4096       H  0.71163493  0.87922068  0.40953846     0.17900
H4097       H  0.73396498  0.99374092  0.35719308     0.17900
N4098       N  0.73787420  0.99149526  0.42030978    -0.88900
H4099       H  0.71470658  0.85850005  0.35996496     0.35200
H4100       H  0.74334052  0.87696733  0.33522276     0.40300
H4101       H  0.74072521  0.98413163  0.44504782     0.39900
H4102       H  0.71874002  0.51089680  0.41947292     0.34800
C4103       C  0.84533258  0.78067314  0.50222743    -0.26900
C4104       C  0.83647417  0.79187879  0.47070084    -0.15000
C4105       C  0.85646657  0.81549345  0.45274138     0.35700
C4106       C  0.88941701  0.81794768  0.46149290    -0.26300
C4107       C  0.90057887  0.80370106  0.49228249    -0.15600
C4108       C  0.87767084  0.78701671  0.01432399     0.36700
N4109       N  0.88350728  0.77745175  0.04810022    -0.89800
H4110       H  0.83006710  0.76524605  0.01810615     0.17900
H4111       H  0.90497668  0.83514229  0.44649047     0.17900
N4112       N  0.84376963  0.83623914  0.42533333    -0.88900
H4113       H  0.87934528  0.75153380  0.05277851     0.35200
H4114       H  0.86676972  0.79012691  0.06167838     0.40300
H4115       H  0.83172554  0.82114082  0.40976752     0.39900
H4116       H  0.82586154  0.85184331  0.43396610     0.34800
C4117       C  0.76755384  0.68843856  0.01529449    -0.26900
C4118       C  0.79571773  0.68902262  0.50576371    -0.15000
C4119       C  0.81751015  0.66612567  0.52227544     0.35700
C4120       C  0.80973180  0.63812008  0.04172640    -0.26300
C4121       C  0.77548474  0.63425705  0.04563833    -0.15600
C4122       C  0.75468500  0.66178907  0.03514098     0.36700
N4123       N  0.72072421  0.66295336  0.04469703    -0.89800
H4124       H  0.75089552  0.70743751  0.00454505     0.17900
H4125       H  0.82666730  0.62005602  0.05368880     0.17900
N4126       N  0.85244743  0.67077659  0.52097856    -0.88900
H4127       H  0.70891539  0.68421531  0.03335529     0.35200
H4128       H  0.72003795  0.66548612  0.06957370     0.40300
H4129       H  0.85784534  0.69445776  0.52853664     0.39900
H4130       H  0.86063731  0.67039208  0.49717767     0.34800
C4131       C  0.70842478  0.78125548  0.39879821    -0.26900
C4132       C  0.69896817  0.75219943  0.38357762    -0.15000
C4133       C  0.69520419  0.72213299  0.40435811     0.35700
C4134       C  0.71091860  0.71970471  0.43491321    -0.26300
C4135       C  0.73143758  0.74636578  0.44267640    -0.15600
C4136       C  0.72440106  0.77840408  0.42850150     0.36700
N4137       N  0.73910104  0.80731912  0.44071903    -0.89800
H4138       H  0.70401845  0.80648464  0.38782907     0.17900
H4139       H  0.71268400  0.69530007  0.44878263     0.17900
N4140       N  0.67653617  0.69441684  0.39435135    -0.88900
H4141       H  0.75472340  0.81877941  0.42287033     0.35200
H4142       H  0.72025675  0.82422555  0.44446350     0.40300
H4143       H  0.65763471  0.68920817  0.41115152     0.39900
H4144       H  0.69169776  0.67324402  0.39530202     0.34800
C4145       C  0.79764062  0.01948928  0.34307913    -0.26900
C4146       C  0.80429143  0.99481046  0.36921942    -0.15000
C4147       C  0.80655267  0.96090674  0.36196760     0.35700
C4148       C  0.79632442  0.95229907  0.33145154    -0.26300
C4149       C  0.78067326  0.97650323  0.30975082    -0.15600
C4150       C  0.78585222  0.01073194  0.31344919     0.36700
N4151       N  0.77749511  0.03650878  0.28809517    -0.89800
H4152       H  0.80633451  0.54517447  0.34546929     0.17900
H4153       H  0.79466874  0.92585354  0.32748098     0.17900
N4154       N  0.81870297  0.93524616  0.38554611    -0.88900
H4155       H  0.78137736  0.06055256  0.29552604     0.35200
H4156       H  0.79361564  0.03413502  0.26884006     0.40300
H4157       H  0.80036545  0.91696085  0.38991023     0.39900
H4158       H  0.83891436  0.92389605  0.37554815     0.34800
C4159       C  0.85262472  0.61526543  0.42281537    -0.26900
C4160       C  0.82912683  0.59180529  0.43430345    -0.15000
C4161       C  0.80211327  0.60178893  0.45208891     0.35700
C4162       C  0.79894658  0.63589079  0.45724585    -0.26300
C4163       C  0.82309809  0.65974803  0.44637634    -0.15600
C4164       C  0.84978516  0.64893306  0.42857928     0.36700
N4165       N  0.87459032  0.67191522  0.41644216    -0.89800
H4166       H  0.87334305  0.60751895  0.40902916     0.17900
H4167       H  0.77688639  0.64374242  0.46865432     0.17900
N4168       N  0.77852698  0.57731640  0.46535137    -0.88900
H4169       H  0.87563265  0.67149308  0.39125815     0.35200
H4170       H  0.89665021  0.66223940  0.42593796     0.40300
H4171       H  0.76564620  0.56839644  0.44604905     0.39900
H4172       H  0.76118800  0.58863446  0.47938185     0.34800
C4173       C  0.75939944  0.68111399  0.39325572    -0.26900
C4174       C  0.76563892  0.71583235  0.38904704    -0.15000
C4175       C  0.76978701  0.73301923  0.35831198     0.35700
C4176       C  0.77206778  0.71399896  0.33226410    -0.26300
C4177       C  0.77255403  0.67869945  0.33782785    -0.15600
C4178       C  0.76424203  0.66185908  0.36768525     0.36700
N4179       N  0.76325226  0.62565237  0.37226922    -0.89800
H4180       H  0.75539222  0.66872799  0.41730299     0.17900
H4181       H  0.77733390  0.72641535  0.30837653     0.17900
N4182       N  0.77475552  0.76894842  0.35432746    -0.88900
H4183       H  0.75635273  0.61747173  0.39604607     0.35200
H4184       H  0.78713694  0.61688140  0.36929706     0.40300
H4185       H  0.77733691  0.77739403  0.32975374     0.39900
H4186       H  0.79695160  0.77434641  0.36549495     0.34800
C4187       C  0.91525333  0.74144964  0.39062936    -0.26900
C4188       C  0.93019133  0.72175830  0.41659821    -0.15000
C4189       C  0.91890405  0.72494239  0.44849083     0.35700
C4190       C  0.88755524  0.73690726  0.45221923    -0.26300
C4191       C  0.87013865  0.75221278  0.42561635    -0.15600
C4192       C  0.88592170  0.75860061  0.39560671     0.36700
N4193       N  0.87172366  0.78139872  0.37045943    -0.89800
H4194       H  0.92518397  0.74212883  0.36639435     0.17900
H4195       H  0.87629101  0.73258042  0.47583211     0.17900
N4196       N  0.93815145  0.71662905  0.47729067    -0.88900
H4197       H  0.87228269  0.80531545  0.37863747     0.35200
H4198       H  0.88706143  0.78360239  0.35018390     0.40300
H4199       H  0.96301104  0.71418114  0.47202320     0.39900
H4200       H  0.92911346  0.69432314  0.48947587     0.34800
C4201       C  0.96523136  0.84616592  0.10955240    -0.26900
C4202       C  0.97073917  0.82046646  0.08947589    -0.15000
C4203       C  0.97554182  0.78692172  0.10341424     0.35700
C4204       C  0.97059746  0.77963965  0.13651125    -0.26300
C4205       C  0.96489881  0.80543806  0.15636516    -0.15600
C4206       C  0.96244728  0.83891215  0.14281924     0.36700
N4207       N  0.95644693  0.86564907  0.16257046    -0.89800
H4208       H  0.96084595  0.87186433  0.09955090     0.17900
H4209       H  0.97223100  0.75373904  0.14697581     0.17900
N4210       N  0.98653509  0.76007182  0.08527452    -0.88900
H4211       H  0.93465045  0.87769058  0.15472371     0.35200
H4212       H  0.97566902  0.88304909  0.15899927     0.40300
H4213       H  0.99300296  0.76875103  0.06154388     0.39900
H4214       H  0.96757119  0.74240615  0.08462601     0.34800
C4215       C  0.86271178  0.77128276  0.23598652    -0.26900
C4216       C  0.88521669  0.75938977  0.21436350    -0.15000
C4217       C  0.87666977  0.76039086  0.18134651     0.35700
C4218       C  0.85126039  0.78146833  0.16966035    -0.26300
C4219       C  0.83197990  0.79888241  0.19069528    -0.15600
C4220       C  0.83532520  0.78984604  0.22455561     0.36700
N4221       N  0.81204078  0.79994462  0.24758985    -0.89800
H4222       H  0.86873079  0.77095215  0.26142934     0.17900
H4223       H  0.84889356  0.78579264  0.14366274     0.17900
N4224       N  0.89668173  0.74501080  0.15835272    -0.88900
H4225       H  0.80268957  0.77820913  0.26056893     0.35200
H4226       H  0.82435573  0.81387041  0.26405465     0.40300
H4227       H  0.91687849  0.73295972  0.16983378     0.39900
H4228       H  0.90589025  0.76414259  0.14178084     0.34800
C4229       C  0.96613440  0.87552935  0.23007805    -0.26900
C4230       C  0.93711783  0.85655630  0.23411128    -0.15000
C4231       C  0.90658114  0.87234468  0.23170598     0.35700
C4232       C  0.90530926  0.90671875  0.22295193    -0.26300
C4233       C  0.93437966  0.92550247  0.21766288    -0.15600
C4234       C  0.96501390  0.91033817  0.22443134     0.36700
N4235       N  0.99468286  0.93001567  0.22427250    -0.89800
H4236       H  0.98967111  0.86310580  0.22996040     0.17900
H4237       H  0.88138653  0.91774246  0.21791984     0.17900
N4238       N  0.87687554  0.85332962  0.23640446    -0.88900
H4239       H  0.51277266  0.91690804  0.23106886     0.35200
H4240       H  0.99284311  0.94579175  0.24295042     0.40300
H4241       H  0.86360879  0.86313798  0.25491471     0.39900
H4242       H  0.86304372  0.85725191  0.21506777     0.34800
C4243       C  0.96870467  0.87347153  0.30638846    -0.26900
C4244       C  0.49980647  0.88380940  0.30110951    -0.15000
C4245       C  0.52072116  0.85781176  0.29048873     0.35700
C4246       C  0.50747921  0.82736970  0.28287407    -0.26300
C4247       C  0.97620855  0.81972560  0.28465816    -0.15600
C4248       C  0.95671060  0.84147373  0.30126515     0.36700
N4249       N  0.92366680  0.83223836  0.31001150    -0.89800
H4250       H  0.95274562  0.89035830  0.31803028     0.17900
H4251       H  0.52306556  0.81018556  0.27114102     0.17900
N4252       N  0.55541755  0.86093033  0.28581720    -0.88900
H4253       H  0.90786610  0.85061889  0.29912078     0.35200
H4254       H  0.92161311  0.83279221  0.33511862     0.40300
H4255       H  0.56722473  0.86556765  0.30732761     0.39900
H4256       H  0.56028910  0.87905009  0.26653805     0.34800
C4257       C  0.53592409  0.80178798  0.17936794    -0.26900
C4258       C  0.01757507  0.77247659  0.19640701    -0.15000
C4259       C  0.02293537  0.73930671  0.18959561     0.35700
C4260       C  0.54035479  0.73604851  0.16318708    -0.26300
C4261       C  0.55012499  0.76255333  0.13981399    -0.15600
C4262       C  0.54946603  0.79575441  0.14931164     0.36700
N4263       N  0.56164706  0.82352291  0.12813020    -0.89800
H4264       H  0.53286967  0.82767415  0.18480622     0.17900
H4265       H  0.54439761  0.70993802  0.15962712     0.17900
N4266       N  0.01026356  0.71187039  0.21078480    -0.88900
H4267       H  0.54240971  0.84057981  0.12309955     0.35200
H4268       H  0.57998476  0.83559371  0.14046690     0.40300
H4269       H  0.99433480  0.69796783  0.19734851     0.39900
H4270       H  0.03000476  0.69638309  0.21835368     0.34800
C4271       C  0.91640944  0.72994580  0.29265789    -0.26900
C4272       C  0.93004559  0.72137796  0.26339549    -0.15000
C4273       C  0.91697614  0.69403178  0.24873989     0.35700
C4274       C  0.88545877  0.68294529  0.25728126    -0.26300
C4275       C  0.86820198  0.69772214  0.28159214    -0.15600
C4276       C  0.88496056  0.71830994  0.30162554     0.36700
N4277       N  0.86885155  0.73075088  0.32855380    -0.89800
H4278       H  0.92699828  0.75030737  0.30483840     0.17900
H4279       H  0.87362175  0.66485336  0.24316050     0.17900
N4280       N  0.93334617  0.68138618  0.22187710    -0.88900
H4281       H  0.86185968  0.71027965  0.34472798     0.35200
H4282       H  0.84764157  0.74361979  0.32021732     0.40300
H4283       H  0.91732691  0.68327819  0.20202479     0.39900
H4284       H  0.93780318  0.65574341  0.22800922     0.34800
C4285       C  0.59135597  0.63513340  0.02810112    -0.26900
C4286       C  0.59341069  0.60923537  0.05356171    -0.15000
C4287       C  0.60717051  0.61786692  0.08313603     0.35700
C4288       C  0.60385205  0.65052210  0.09121292    -0.26300
C4289       C  0.59251405  0.67541075  0.06821670    -0.15600
C4290       C  0.58971965  0.66861870  0.03543287     0.36700
N4291       N  0.58163973  0.69428906  0.01008503    -0.89800
H4292       H  0.58670885  0.62955490  0.00344550     0.17900
H4293       H  0.61083017  0.65643953  0.11526578     0.17900
N4294       N  0.62712547  0.59511121  0.10346743    -0.88900
H4295       H  0.60061866  0.71201417  0.00817127     0.35200
H4296       H  0.56004197  0.70614478  0.01645652     0.40300
H4297       H  0.61801787  0.59395606  0.12716340     0.39900
H4298       H  0.65076294  0.60538716  0.10392884     0.34800
C4299       C  0.53393705  0.58037615  0.16018266    -0.26900
C4300       C  0.54980999  0.55462915  0.17898122    -0.15000
C4301       C  0.54799685  0.52125441  0.17147229     0.35700
C4302       C  0.53579049  0.51520551  0.14116199    -0.26300
C4303       C  0.52567043  0.54252931  0.11958447    -0.15600
C4304       C  0.52108164  0.57430291  0.13062428     0.36700
N4305       N  0.50646645  0.60138351  0.11073410    -0.89800
H4306       H  0.53251306  0.60555009  0.16800671     0.17900
H4307       H  0.53841360  0.49035753  0.13290807     0.17900
N4308       N  0.55965756  0.49422787  0.19384169    -0.88900
H4309       H  0.98499234  0.61066603  0.12083447     0.35200
H4310       H  0.52306420  0.62157145  0.10929433     0.40300
H4311       H  0.57809757  0.48147152  0.18254319     0.39900
H4312       H  0.54018367  0.47742791  0.19891617     0.34800
C4313       C  0.64373180  0.53196337  0.04632032    -0.26900
C4314       C  0.62545976  0.51993668  0.07367672    -0.15000
C4315       C  0.64011419  0.51784393  0.10457549     0.35700
C4316       C  0.67043482  0.53329102  0.10793765    -0.26300
C4317       C  0.68708774  0.54868858  0.08065774    -0.15600
C4318       C  0.67555110  0.54355189  0.04938248     0.36700
N4319       N  0.69558199  0.55062192  0.02095515    -0.89800
H4320       H  0.63250215  0.53502337  0.02259813     0.17900
H4321       H  0.67934876  0.53515312  0.13224231     0.17900
N4322       N  0.62356283  0.50319332  0.13312971    -0.88900
H4323       H  0.68292850  0.54512876  0.00006751     0.35200
H4324       H  0.71570306  0.53430920  0.02332424     0.40300
H4325       H  0.60202102  0.49099057  0.12700298     0.39900
H4326       H  0.61696712  0.52277709  0.14687029     0.34800
C4327       C  0.95411623  0.54005436  0.10583091    -0.26900
C4328       C  0.95985248  0.50841698  0.12333303    -0.15000
C4329       C  0.97124243  0.98263373  0.10375219     0.35700
C4330       C  0.48317553  0.48863746  0.07267945    -0.26300
C4331       C  0.48728573  0.52208115  0.06151565    -0.15600
C4332       C  0.46599226  0.54560592  0.07317925     0.36700
N4333       N  0.45958922  0.57730640  0.05502524    -0.89800
H4334       H  0.94031547  0.55933419  0.11658191     0.17900
H4335       H  0.49427641  0.97161260  0.06157770     0.17900
N4336       N  0.97151698  0.94727040  0.11403772    -0.88900
H4337       H  0.46923006  0.57699407  0.03167640     0.35200
H4338       H  0.43415526  0.57937479  0.05202480     0.40300
H4339       H  0.94909648  0.93902261  0.12398285     0.39900
H4340       H  0.99182087  0.94095778  0.12880531     0.34800
C4341       C  0.52959353  0.57880608  0.47571591    -0.26900
C4342       C  0.53630938  0.58915480  0.00527179    -0.15000
C4343       C  0.52195166  0.61878213  0.01536258     0.35700
C4344       C  0.51286162  0.64285700  0.49121887    -0.26300
C4345       C  0.50853930  0.63368235  0.45996043    -0.15600
C4346       C  0.51064196  0.59943612  0.45455664     0.36700
N4347       N  0.49318024  0.58581612  0.42844809    -0.89800
H4348       H  0.53446001  0.55384465  0.46935433     0.17900
H4349       H  0.49972772  0.66584878  0.99899462     0.17900
N4350       N  0.52092900  0.62577152  0.04844861    -0.88900
H4351       H  0.49724291  0.55990257  0.42862924     0.35200
H4352       H  0.46807908  0.58893534  0.43246474     0.40300
H4353       H  0.53094222  0.64958853  0.05033881     0.39900
H4354       H  0.49619805  0.62839895  0.05427965     0.34800
C4355       C  0.60519891  0.95706699  0.05015048    -0.26900
C4356       C  0.58925736  0.48156103  0.02791389    -0.15000
C4357       C  0.60028652  0.48901600  0.99588629     0.35700
C4358       C  0.62845697  0.97487377  0.48862667    -0.26300
C4359       C  0.65070780  0.95948031  0.01192929    -0.15600
C4360       C  0.63759491  0.94934134  0.04329014     0.36700
N4361       N  0.65618238  0.93094054  0.06859504    -0.89800
H4362       H  0.59625831  0.95024130  0.07458384     0.17900
H4363       H  0.63380782  0.97909178  0.46312806     0.17900
N4364       N  0.58059090  0.50702473  0.47411114    -0.88900
H4365       H  0.67641118  0.94546045  0.07423805     0.35200
H4366       H  0.66406348  0.90799209  0.06123716     0.40300
H4367       H  0.58219391  0.53173564  0.48010533     0.39900
H4368       H  0.55637316  0.49855514  0.47277268     0.34800
C4369       C  0.54426162  0.53045464  0.53366105     0.44900
H4370       H  0.53056310  0.52038549  0.51363115    -0.04100
C4371       C  0.57479323  0.55132457  0.58265639     0.44900
H4372       H  0.58565768  0.55807813  0.60540390    -0.04100
C4373       C  0.55926443  0.56629084  0.52716838    -0.17800
C4374       C  0.52200109  0.53493063  0.56178319    -0.17600
C4375       C  0.57235790  0.50725800  0.54714577    -0.18000
C4376       C  0.57840506  0.57616290  0.55253123    -0.17900
C4377       C  0.53841195  0.54521490  0.58760532    -0.17500
C4378       C  0.58884815  0.51945844  0.57252579    -0.17800
C4379       C  0.97515238  0.77183821  0.74543021     0.44900
H4380       H  0.99329940  0.75800513  0.76174386    -0.04100
C4381       C  0.93293975  0.80423017  0.70663854     0.44900
H4382       H  0.91479615  0.81824170  0.69033027    -0.04100
C4383       C  0.98838205  0.78351046  0.71081261    -0.17800
C4384       C  0.94369162  0.75168982  0.73977911    -0.17600
C4385       C  0.96189554  0.80428466  0.75800388    -0.18000
C4386       C  0.96534618  0.80003843  0.69095773    -0.17900
C4387       C  0.92234002  0.76890700  0.71844270    -0.17500
C4388       C  0.94057064  0.82140307  0.73665120    -0.17800
C4389       C  0.49802264  0.66015870  0.93476893     0.85900
C4390       C  0.51675460  0.69282900  0.93773490    -0.54300
C4391       C  0.50886115  0.71803877  0.91454548     0.08800
C4392       C  0.98450530  0.70486254  0.88691158     0.19800
C4393       C  0.96544129  0.66923402  0.93275680    -0.55000
C4394       C  0.95705154  0.69540054  0.91054706     0.08900
C4395       C  0.50845354  0.65130550  0.90176705    -0.54600
C4396       C  0.99548789  0.66891357  0.87528904     0.09500
H4397       H  0.53329538  0.69641945  0.95774964     0.14000
H4398       H  0.97820334  0.72379968  0.86649794    -0.00200
H4399       H  0.94930050  0.65892041  0.95201828     0.14300
H4400       H  0.52184537  0.62838683  0.89837444     0.14100
C4401       C  0.79027313  0.66660429  0.75532555     0.85900
C4402       C  0.81445313  0.69577786  0.75912761    -0.54300
C4403       C  0.83447229  0.69141260  0.78565675     0.08800
C4404       C  0.82583204  0.66065301  0.80836047     0.19800
C4405       C  0.81407601  0.63462765  0.75904204    -0.55000
C4406       C  0.83335293  0.63255161  0.78779001     0.08900
C4407       C  0.77043770  0.66185794  0.78606090    -0.54600
C4408       C  0.78849953  0.66044022  0.81317145     0.09500
H4409       H  0.82059856  0.71382696  0.73864739     0.14000
H4410       H  0.83960546  0.65918979  0.83170002    -0.00200
H4411       H  0.81687850  0.61743867  0.74046732     0.14300
H4412       H  0.74392975  0.66507097  0.78694416     0.14100
C4413       C  0.82254657  0.50585127  0.89857319     0.85900
C4414       C  0.82064841  0.98893272  0.93284893    -0.54300
C4415       C  0.84096520  0.00235810  0.95537648     0.08800
C4416       C  0.86099418  0.53416630  0.93765864     0.19800
C4417       C  0.81276452  0.54245863  0.90501711    -0.55000
C4418       C  0.83272792  0.55670011  0.92607170     0.08900
C4419       C  0.85905552  0.50265746  0.89221494    -0.54600
C4420       C  0.87723813  0.52711659  0.90289306     0.09500
H4421       H  0.80467312  0.96728028  0.93850353     0.14000
H4422       H  0.87816156  0.54585436  0.95421492    -0.00200
H4423       H  0.79122044  0.55546536  0.89469427     0.14300
H4424       H  0.86780454  0.98902744  0.87303952     0.14100
O4425       O  0.89536888  0.53709801  0.75267875    -0.81500
O4426       O  0.94837780  0.63322892  0.85651063    -0.66200
O4427       O  0.92340375  0.57083319  0.79548154    -1.12800
C4428       C  0.50731044  0.50301072  0.83821441     1.05400
O4429       O  0.00056733  0.62232223  0.84368843    -0.79400
O4430       O  0.53162428  0.57778004  0.81356981    -0.66900
Ni4431     Ni  0.88799009  0.54123364  0.79792260     1.34900
C4432       C  0.52228225  0.58455164  0.78449960     0.84200
O4433       O  0.88695663  0.62076750  0.81569630    -0.79900
O4434       O  0.86061560  0.58012566  0.78881893    -0.90200
C4435       C  0.97947901  0.64173083  0.85566765     0.83700
O4436       O  0.87965535  0.53982238  0.84401221    -0.68400
O4437       O  0.51299796  0.52485984  0.85899761    -0.87700
C4438       C  0.88948466  0.54956145  0.87109285     0.84600
C4439       C  0.86239867  0.60997137  0.79790656     1.06100
H4440       H  0.95706161  0.54838541  0.85462303     0.37900
O4441       O  0.96513952  0.56506332  0.83808783    -1.10300
O4442       O  0.99210799  0.57722201  0.77700761    -0.67000
Ni4443     Ni  0.96078592  0.54359694  0.79933358     1.26300
O4444       O  0.90921054  0.57460843  0.86987001    -0.67200
O4445       O  0.99536292  0.01250416  0.80905520    -0.79500
C4446       C  0.92198834  0.52685860  0.74041994     0.83900
O4447       O  0.94985861  0.52526155  0.75669609    -0.66700
Ni4448     Ni  0.50650157  0.57512133  0.85254931     1.27400
Ni4449     Ni  0.92993043  0.59802778  0.82957292     1.26100
H4450       H  0.92392438  0.58494142  0.77511585     0.38500
C4451       C  0.82085350  0.72050964  0.92064397     0.44900
H4452       H  0.83150419  0.71074456  0.89870004    -0.04100
C4453       C  0.79399427  0.74494710  0.96995129     0.44900
H4454       H  0.78223791  0.75564122  0.99086484    -0.04100
C4455       C  0.82255607  0.69613155  0.95121776    -0.17800
C4456       C  0.83667033  0.75293214  0.92885994    -0.17600
C4457       C  0.78472442  0.72757031  0.91712936    -0.18000
C4458       C  0.80985154  0.70992770  0.97791221    -0.17900
C4459       C  0.82109135  0.76721851  0.95360549    -0.17500
C4460       C  0.76988866  0.73876918  0.94341924    -0.17800
C4461       C  0.67771804  0.93822861  0.49819499     0.85900
C4462       C  0.71005599  0.93350374  0.51647070    -0.54300
C4463       C  0.73248269  0.91336476  0.50273103     0.08800
C4464       C  0.71697479  0.89663016  0.97417866     0.19800
C4465       C  0.68948166  0.95006980  0.96374661    -0.55000
C4466       C  0.70991287  0.92766226  0.95121166     0.08900
C4467       C  0.66352457  0.90362671  0.49791924    -0.54600
C4468       C  0.68077258  0.88267872  0.98296569     0.09500
H4469       H  0.71666157  0.94970048  0.53508701     0.14000
H4470       H  0.73347076  0.87797148  0.96442746    -0.00200
H4471       H  0.68328265  0.97364025  0.95000504     0.14300
H4472       H  0.63801570  0.89899770  0.50537061     0.14100
C4473       C  0.68509142  0.75914294  0.85409966     0.85900
C4474       C  0.68333189  0.73520854  0.82715033    -0.54300
C4475       C  0.66381444  0.74782797  0.80139235     0.08800
C4476       C  0.64706407  0.78288505  0.80751204     0.19800
C4477       C  0.69732297  0.79249731  0.83482247    -0.55000
C4478       C  0.67719180  0.80421697  0.80997727     0.08900
C4479       C  0.64965118  0.76291980  0.86386501    -0.54600
C4480       C  0.63225664  0.78303553  0.84306807     0.09500
H4481       H  0.69864196  0.71300946  0.82664961     0.14000
H4482       H  0.62974260  0.79202862  0.78788024    -0.00200
H4483       H  0.72000235  0.80524432  0.84007940     0.14300
H4484       H  0.64225559  0.75885869  0.88930241     0.14100
C4485       C  0.51542895  0.90959387  0.82170116     0.85900
C4486       C  0.99797936  0.94376389  0.82449119    -0.54300
C4487       C  0.51192806  0.96243162  0.84693757     0.08800
C4488       C  0.54350212  0.94359376  0.86453537     0.19800
C4489       C  0.55026741  0.92317828  0.81269043    -0.55000
C4490       C  0.56481393  0.94165250  0.83508904     0.08900
C4491       C  0.51522052  0.89265280  0.85562285    -0.54600
C4492       C  0.53638342  0.90430024  0.87639745     0.09500
H4493       H  0.97797540  0.95218654  0.80830036     0.14000
H4494       H  0.55348475  0.95799026  0.88389270     0.02600
H4495       H  0.55929798  0.92397880  0.78815961     0.14300
H4496       H  0.50317248  0.86822928  0.86033610     0.14100
O4497       O  0.51874523  0.77702643  0.89727447    -0.81500
O4498       O  0.64537788  0.86439909  0.93812993    -0.66200
O4499       O  0.58132850  0.79625799  0.91928111    -1.12800
C4500       C  0.51749713  0.84420968  0.49772140     1.05400
O4501       O  0.63594717  0.84498253  0.98925733    -0.79400
O4502       O  0.58694924  0.81685147  0.52391784    -0.66900
Ni4503     Ni  0.55634371  0.80220519  0.87945477     1.34900
C4504       C  0.58719570  0.78586514  0.52000569     0.84200
O4505       O  0.63607022  0.82166651  0.88616638    -0.79900
O4506       O  0.59190071  0.82425012  0.85609449    -0.90200
C4507       C  0.65497075  0.86067255  0.96817678     0.83700
O4508       O  0.54097670  0.84450383  0.89392365    -0.68400
O4509       O  0.54181523  0.86471908  0.50186708    -0.87700
C4510       C  0.55658956  0.87288442  0.89094875     0.84600
C4511       C  0.62066432  0.81319412  0.86058545     1.06100
H4512       H  0.56487876  0.85919935  0.94906299     0.37900
O4513       O  0.57924902  0.84144809  0.95747358    -1.10300
O4514       O  0.58004276  0.77634864  0.99300119    -0.67000
Ni4515     Ni  0.55376694  0.80207505  0.95620161     1.26300
O4516       O  0.58772531  0.87221405  0.89711840    -0.67200
O4517       O  0.52241919  0.81535908  0.98830130    -0.79500
C4518       C  0.51961538  0.75372678  0.92047952     0.83900
O4519       O  0.53042758  0.76037912  0.94867517    -0.66700
Ni4520     Ni  0.58975717  0.85626599  0.49518332     1.27400
Ni4521     Ni  0.61071842  0.83372619  0.92387977     1.26100
H4522       H  0.59274125  0.77492766  0.92180461     0.38500
C4523       C  0.75855675  0.60583375  0.56813290     0.85900
C4524       C  0.78022277  0.57459766  0.57436235    -0.54300
C4525       C  0.76836042  0.55066600  0.59715298     0.08800
C4526       C  0.73740723  0.56415563  0.61560921     0.19800
C4527       C  0.72433513  0.59083368  0.56231094    -0.55000
C4528       C  0.71391056  0.56771623  0.58696102     0.08900
C4529       C  0.75642136  0.62135152  0.59960151    -0.54600
C4530       C  0.74243726  0.60234627  0.62425315     0.09500
H4531       H  0.79915380  0.56888096  0.55728793     0.14000
H4532       H  0.73010138  0.54662022  0.63674461    -0.00200
H4533       H  0.71101883  0.59615197  0.53973238     0.14300
H4534       H  0.76124036  0.64818129  0.60066576     0.14100
C4535       C  0.54998815  0.59084556  0.75851112     0.85900
C4536       C  0.58456529  0.57751379  0.76963984    -0.54300
C4537       C  0.60748705  0.57824373  0.74486358     0.08800
C4538       C  0.59315818  0.58995788  0.71176698     0.19800
C4539       C  0.55941749  0.62679770  0.74040005    -0.55000
C4540       C  0.58376787  0.62566906  0.71620505     0.08900
C4541       C  0.54062987  0.56915630  0.73247002    -0.54600
C4542       C  0.56239319  0.56887073  0.70874878     0.09500
H4543       H  0.59063900  0.56980755  0.79480207     0.14000
H4544       H  0.60832630  0.58960381  0.68995387    -0.00200
H4545       H  0.55226188  0.65002213  0.74997759     0.14300
H4546       H  0.51697685  0.55651461  0.73103555     0.14100
C4547       C  0.57041421  0.75343397  0.60884552     0.85900
C4548       C  0.56633283  0.77240019  0.57556539    -0.54300
C4549       C  0.58945462  0.76429780  0.55310042     0.08800
C4550       C  0.61557485  0.73641333  0.56963857     0.19800
C4551       C  0.56916239  0.71569431  0.60058622    -0.55000
C4552       C  0.59260744  0.70800535  0.57883905     0.08900
C4553       C  0.60541764  0.76382355  0.61653321    -0.54600
C4554       C  0.62803703  0.74373914  0.60556883     0.09500
H4555       H  0.54755681  0.79142734  0.57022419     0.14000
H4556       H  0.63587848  0.73011273  0.55346310    -0.00200
H4557       H  0.55089245  0.69727993  0.60955603     0.14300
H4558       H  0.61034801  0.77731898  0.63773522     0.14100
O4559       O  0.64129065  0.72324406  0.75563815    -0.81500
O4560       O  0.69643555  0.63491126  0.64667900    -0.66200
O4561       O  0.67055712  0.69323785  0.71099587    -1.12800
C4562       C  0.75670900  0.76243458  0.67124218     1.05400
O4563       O  0.74821502  0.64152804  0.66345877    -0.79400
O4564       O  0.77929634  0.68487064  0.69863830    -0.66900
Ni4565     Ni  0.63457243  0.72176661  0.70986605     1.34900
C4566       C  0.76691417  0.67849508  0.72664192     0.84200
O4567       O  0.63521351  0.64384554  0.68705921    -0.79900
O4568       O  0.60692358  0.68170823  0.71517335    -0.90200
C4569       C  0.72709275  0.62517344  0.64797129     0.83700
O4570       O  0.62842132  0.72709287  0.66371265    -0.68400
O4571       O  0.76492985  0.74004365  0.65200548    -0.87700
C4572       C  0.63967524  0.71971546  0.63643843     0.84600
C4573       C  0.60985684  0.65237110  0.70479556     1.06100
H4574       H  0.70764230  0.71688015  0.65295597     0.37900
O4575       O  0.71422377  0.69984872  0.66984917    -1.10300
O4576       O  0.73687827  0.68712412  0.73231613    -0.67000
Ni4577     Ni  0.70767781  0.72098204  0.70861320     1.26300
O4578       O  0.65885532  0.69441733  0.63659116    -0.67200
O4579       O  0.74366958  0.75330966  0.69936297    -0.79500
C4580       C  0.66722760  0.73581017  0.76757088     0.83900
O4581       O  0.69490164  0.73918671  0.75103257    -0.66700
Ni4582     Ni  0.75705175  0.69026640  0.65747358     1.27400
Ni4583     Ni  0.67818088  0.66770194  0.67580836     1.26100
H4584       H  0.67114602  0.67824309  0.73081165     0.38500
C4585       C  0.73409237  0.98725594  0.76668041     0.44900
H4586       H  0.75092019  0.00271875  0.75044543    -0.04100
C4587       C  0.69303253  0.95192727  0.80375875     0.44900
H4588       H  0.67535370  0.93672287  0.81966993    -0.04100
C4589       C  0.75009651  0.96865154  0.79711665    -0.17800
C4590       C  0.70689114  0.00825704  0.78045952    -0.17600
C4591       C  0.71612721  0.95942267  0.74993715    -0.18000
C4592       C  0.72752182  0.95067127  0.81660371    -0.17900
C4593       C  0.68465073  0.98891925  0.79882012    -0.17500
C4594       C  0.69563623  0.94023621  0.77059262    -0.17800
C4595       C  0.94164570  0.50100030  0.65533748     0.85900
C4596       C  0.93922569  0.52624729  0.68122746    -0.54300
C4597       C  0.91882615  0.51489247  0.70667982     0.08800
C4598       C  0.90077454  0.98108368  0.70005954     0.19800
C4599       C  0.95235985  0.97121751  0.67505886    -0.55000
C4600       C  0.93095367  0.95957030  0.69882586     0.08900
C4601       C  0.90648089  0.49678738  0.64441462    -0.54600
C4602       C  0.88672608  0.98014078  0.66450976     0.09500
H4603       H  0.95516521  0.54808643  0.68164448     0.14000
H4604       H  0.88287394  0.97278124  0.71936580    -0.00200
H4605       H  0.97596938  0.95990168  0.67223344     0.14300
H4606       H  0.89996572  0.49939151  0.61866937     0.14100
C4607       C  0.75866969  0.85607608  0.68119825     0.85900
C4608       C  0.74280541  0.82168076  0.67975270    -0.54300
C4609       C  0.76041210  0.80083441  0.66118256     0.08800
C4610       C  0.79186010  0.82062370  0.64412769     0.19800
C4611       C  0.79423949  0.84615141  0.69327337    -0.55000
C4612       C  0.81065756  0.82522788  0.67472119     0.08900
C4613       C  0.75849944  0.86925400  0.64587834    -0.54600
C4614       C  0.78385755  0.85918289  0.62934064     0.09500
H4615       H  0.72297508  0.81273200  0.69579719     0.14000
H4616       H  0.80399415  0.80603919  0.62617643    -0.00200
H4617       H  0.80296456  0.85158439  0.71696551     0.14300
H4618       H  0.74488153  0.89211510  0.63797204     0.14100
C4619       C  0.92803340  0.82319107  0.50661061     0.85900
C4620       C  0.95925769  0.83490631  0.98734779    -0.54300
C4621       C  0.98078427  0.85347061  0.50226182     0.08800
C4622       C  0.96559121  0.86452578  0.53508180     0.19800
C4623       C  0.94301838  0.80799411  0.53873017    -0.55000
C4624       C  0.96179525  0.82991321  0.55420727     0.08900
C4625       C  0.91118007  0.85484686  0.51385896    -0.54600
C4626       C  0.92832859  0.87645397  0.52964027     0.09500
H4627       H  0.96553210  0.82327586  0.96549541     0.14000
H4628       H  0.98122488  0.88266272  0.54691167    -0.00200
H4629       H  0.93922532  0.78224673  0.54854280     0.14300
H4630       H  0.88585297  0.85784324  0.01039866     0.14100
O4631       O  0.77241825  0.49018827  0.61351933    -0.81500
O4632       O  0.89360235  0.89735477  0.57236466    -0.66200
O4633       O  0.83280427  0.96796752  0.59019140    -1.12800
C4634       C  0.76952605  0.92303276  0.00950793     1.05400
O4635       O  0.88742637  0.91803968  0.52115683    -0.79400
O4636       O  0.84179807  0.94972382  0.98544872    -0.66900
Ni4637     Ni  0.80805736  0.96377236  0.63021569     1.34900
C4638       C  0.84033780  0.98088914  0.98900713     0.84200
O4639       O  0.88628238  0.93983181  0.62348690    -0.79900
O4640       O  0.84290692  0.94120248  0.65433099    -0.90200
C4641       C  0.90458848  0.90095223  0.54293462     0.83700
O4642       O  0.79051117  0.92058609  0.61905747    -0.68400
O4643       O  0.79360286  0.90263945  0.00463259    -0.87700
C4644       C  0.80513361  0.89169960  0.61883108     0.84600
C4645       C  0.87220068  0.95025489  0.64871436     1.06100
H4646       H  0.81425607  0.90610333  0.55930897     0.37900
O4647       O  0.82940252  0.92347275  0.55128523    -1.10300
O4648       O  0.83222830  0.99028241  0.51661926    -0.67000
Ni4649     Ni  0.80536335  0.96385604  0.55250647     1.26300
O4650       O  0.83596264  0.89170757  0.61165786    -0.67200
O4651       O  0.77424725  0.95164157  0.51929400    -0.79500
C4652       C  0.77509282  0.51387565  0.59066875     0.83900
O4653       O  0.78445435  0.50658727  0.56225964    -0.66700
Ni4654     Ni  0.84096115  0.90867065  0.51217581     1.27400
Ni4655     Ni  0.86051650  0.92948590  0.58569790     1.26100
H4656       H  0.84536315  0.98866709  0.58778144     0.38500
C4657       C  0.76905625  0.90984681  0.70491936    -0.26900
C4658       C  0.74547541  0.88506169  0.69824326    -0.15000
C4659       C  0.71223579  0.89561709  0.69522388     0.35700
C4660       C  0.70368124  0.92765715  0.70349120    -0.26300
C4661       C  0.72671212  0.94680882  0.71934339    -0.15600
C4662       C  0.76004632  0.94020401  0.71575282     0.36700
N4663       N  0.78494710  0.96298920  0.72479992    -0.89800
H4664       H  0.79509900  0.90638141  0.70148380     0.17900
H4665       H  0.67783869  0.93408582  0.70418775     0.17900
N4666       N  0.68655437  0.87417920  0.68537698    -0.88900
H4667       H  0.79965011  0.96964470  0.70450170     0.35200
H4668       H  0.79968673  0.95032496  0.74275711     0.40300
H4669       H  0.68506652  0.85301405  0.70227505     0.39900
H4670       H  0.69193075  0.86670699  0.66249034     0.34800
C4671       C  0.69470541  0.54834306  0.73478818    -0.26900
C4672       C  0.70163095  0.04392815  0.76957364    -0.15000
C4673       C  0.68571610  0.06405345  0.79059418     0.35700
C4674       C  0.65735044  0.57879528  0.77988702    -0.26300
C4675       C  0.64336432  0.57343145  0.74965889    -0.15600
C4676       C  0.66390527  0.56087774  0.72571396     0.36700
N4677       N  0.65238991  0.55520313  0.69404591    -0.89800
H4678       H  0.70809952  0.53469557  0.71761689     0.17900
H4679       H  0.64385526  0.59161316  0.79752906     0.17900
N4680       N  0.69738251  0.06520456  0.82313821    -0.88900
H4681       H  0.65409941  0.52945285  0.69133952     0.35200
H4682       H  0.66787035  0.56822241  0.67702590     0.40300
H4683       H  0.67890428  0.05602747  0.83912499     0.39900
H4684       H  0.70140197  0.09048834  0.82677091     0.34800
C4685       C  0.64389035  0.99136076  0.84053074    -0.26900
C4686       C  0.65106027  0.99743901  0.80741983    -0.15000
C4687       C  0.62633139  0.99280816  0.78441529     0.35700
C4688       C  0.59627944  0.97913773  0.79484785    -0.26300
C4689       C  0.59229054  0.96545022  0.82713872    -0.15600
C4690       C  0.61568930  0.97320729  0.85056257     0.36700
N4691       N  0.61294928  0.95983640  0.88382631    -0.89800
H4692       H  0.66311800  0.99427799  0.85824143     0.17900
H4693       H  0.57768071  0.97570540  0.77671291     0.17900
N4694       N  0.63350063  0.99605391  0.75038377    -0.88900
H4695       H  0.61352150  0.98001268  0.89820496     0.35200
H4696       H  0.63345697  0.94471184  0.88978713     0.40300
H4697       H  0.61479132  0.01017412  0.73837340     0.39900
H4698       H  0.63242420  0.97221250  0.74198777     0.34800
C4699       C  0.65439399  0.85706232  0.78486576    -0.26900
C4700       C  0.68182152  0.83600179  0.78978593    -0.15000
C4701       C  0.71315937  0.84789774  0.77971716     0.35700
C4702       C  0.71717451  0.88228081  0.77134197    -0.26300
C4703       C  0.68999551  0.90397948  0.76955891    -0.15600
C4704       C  0.65835187  0.89097406  0.77460220     0.36700
N4705       N  0.63050656  0.91277636  0.77236018    -0.89800
H4706       H  0.63005725  0.84826653  0.79197731     0.17900
H4707       H  0.74179103  0.89229452  0.76793598     0.17900
N4708       N  0.74112182  0.82617501  0.77814674    -0.88900
H4709       H  0.61863129  0.91016854  0.79480458     0.35200
H4710       H  0.61454934  0.90463991  0.75489659     0.40300
H4711       H  0.73443948  0.80077441  0.78166836     0.39900
H4712       H  0.75752067  0.83125289  0.79654094     0.34800
C4713       C  0.72116814  0.90526057  0.89948437    -0.26900
C4714       C  0.72271690  0.93263411  0.91829079    -0.15000
C4715       C  0.73136018  0.96501892  0.90391821     0.35700
C4716       C  0.73269560  0.97026190  0.87045162    -0.26300
C4717       C  0.73046903  0.94311994  0.85159951    -0.15600
C4718       C  0.72563242  0.91022970  0.86602283     0.36700
N4719       N  0.72338748  0.88253889  0.84641350    -0.89800
H4720       H  0.71452936  0.88040563  0.91047767     0.17900
H4721       H  0.73575322  0.99569485  0.85902218     0.17900
N4722       N  0.73947122  0.99273240  0.92231392    -0.88900
H4723       H  0.71856824  0.86013469  0.86086557     0.35200
H4724       H  0.74648101  0.87976117  0.83604187     0.40300
H4725       H  0.74212549  0.98507447  0.94701962     0.39900
H4726       H  0.72042541  0.50971959  0.91716016     0.34800
C4727       C  0.84642849  0.78129380  0.00286703    -0.26900
C4728       C  0.83806308  0.79220763  0.97113162    -0.15000
C4729       C  0.85817888  0.81570441  0.95329826     0.35700
C4730       C  0.89104639  0.81784789  0.96218742    -0.26300
C4731       C  0.90186557  0.80347603  0.99301776    -0.15600
C4732       C  0.87665503  0.78678627  0.51354647     0.36700
N4733       N  0.88292786  0.77683792  0.54713836    -0.89800
H4734       H  0.82921957  0.76420992  0.51735508     0.17900
H4735       H  0.90680933  0.83488238  0.94725013     0.17900
N4736       N  0.84574355  0.83645605  0.92579020    -0.88900
H4737       H  0.87911197  0.75084036  0.55150855     0.35200
H4738       H  0.86617455  0.78908973  0.56105959     0.40300
H4739       H  0.83394038  0.82133102  0.91008217     0.39900
H4740       H  0.82771852  0.85204097  0.93425147     0.34800
C4741       C  0.76203575  0.68659177  0.51170920    -0.26900
C4742       C  0.80083685  0.68940276  0.00745999    -0.15000
C4743       C  0.82264257  0.66592003  0.02319997     0.35700
C4744       C  0.80474971  0.63825129  0.54069028    -0.26300
C4745       C  0.77051054  0.63291975  0.54320276    -0.15600
C4746       C  0.74902816  0.65904434  0.53049664     0.36700
N4747       N  0.71423948  0.65794395  0.53675010    -0.89800
H4748       H  0.74540759  0.70511916  0.50008867     0.17900
H4749       H  0.82193852  0.62129803  0.55379458     0.17900
N4750       N  0.85761163  0.67001316  0.02112105    -0.88900
H4751       H  0.70214869  0.67823726  0.52398239     0.35200
H4752       H  0.71076138  0.66064416  0.56136645     0.40300
H4753       H  0.86361038  0.69345544  0.02890896     0.39900
H4754       H  0.86518775  0.66992480  0.99709836     0.34800
C4755       C  0.71149037  0.78096245  0.90242414    -0.26900
C4756       C  0.70247549  0.75244365  0.88619743    -0.15000
C4757       C  0.69885554  0.72161210  0.90585925     0.35700
C4758       C  0.71430429  0.71814096  0.93645517    -0.26300
C4759       C  0.73451972  0.74454059  0.94510454    -0.15600
C4760       C  0.72679424  0.77698259  0.93247258     0.36700
N4761       N  0.73973296  0.80543330  0.94695984    -0.89800
H4762       H  0.70701647  0.80647514  0.89209575     0.17900
H4763       H  0.71630659  0.69333825  0.94952304     0.17900
N4764       N  0.68066859  0.69417573  0.89461502    -0.88900
H4765       H  0.75525369  0.81878485  0.93017748     0.35200
H4766       H  0.72000322  0.82105987  0.95136337     0.40300
H4767       H  0.66169729  0.68801895  0.91111104     0.39900
H4768       H  0.69606519  0.67324682  0.89482072     0.34800
C4769       C  0.80092451  0.01972494  0.84297955    -0.26900
C4770       C  0.80655044  0.99496968  0.86936262    -0.15000
C4771       C  0.80822271  0.96101943  0.86227383     0.35700
C4772       C  0.79765848  0.95253607  0.83182405    -0.26300
C4773       C  0.78257227  0.97714137  0.81009273    -0.15600
C4774       C  0.78913847  0.01112857  0.81333205     0.36700
N4775       N  0.78204128  0.03684417  0.78751251    -0.89800
H4776       H  0.80452490  0.54600730  0.84511445     0.17900
H4777       H  0.79522893  0.92612241  0.82797768     0.17900
N4778       N  0.82007451  0.93526137  0.88591192    -0.88900
H4779       H  0.78709270  0.06082937  0.79455449     0.35200
H4780       H  0.79806545  0.03327123  0.76845421     0.40300
H4781       H  0.80150070  0.91725466  0.89037637     0.39900
H4782       H  0.84008794  0.92358209  0.87591214     0.34800
C4783       C  0.85377497  0.61420163  0.92317399    -0.26900
C4784       C  0.82931932  0.59149973  0.93402030    -0.15000
C4785       C  0.80262067  0.60228102  0.95182181     0.35700
C4786       C  0.80108590  0.63624987  0.95810784    -0.26300
C4787       C  0.82603296  0.65932119  0.94749697    -0.15600
C4788       C  0.85220575  0.64782013  0.92944176     0.36700
N4789       N  0.87769367  0.67007519  0.91743962    -0.89800
H4790       H  0.87427281  0.60590308  0.90943625     0.17900
H4791       H  0.77956234  0.64480584  0.97002122     0.17900
N4792       N  0.77765957  0.57876243  0.96390743    -0.88900
H4793       H  0.87828307  0.67026453  0.89216320     0.35200
H4794       H  0.89960633  0.65947860  0.92647624     0.40300
H4795       H  0.76480161  0.57106048  0.94402048     0.39900
H4796       H  0.76055278  0.59057380  0.97780370     0.34800
C4797       C  0.76242971  0.67994020  0.89396979    -0.26900
C4798       C  0.76881644  0.71464668  0.89014439    -0.15000
C4799       C  0.77309055  0.73211865  0.85953833     0.35700
C4800       C  0.77503882  0.71343348  0.83324452    -0.26300
C4801       C  0.77506866  0.67813309  0.83835265    -0.15600
C4802       C  0.76663701  0.66101334  0.86803663     0.36700
N4803       N  0.76462688  0.62483489  0.87199913    -0.89800
H4804       H  0.75823738  0.66730787  0.91785721     0.17900
H4805       H  0.78033991  0.72608581  0.80946691     0.17900
N4806       N  0.77856986  0.76797487  0.85589675    -0.88900
H4807       H  0.75762082  0.61645018  0.89568988     0.35200
H4808       H  0.78821255  0.61541990  0.86874412     0.40300
H4809       H  0.78095276  0.77668697  0.83136219     0.39900
H4810       H  0.80101996  0.77286006  0.86684114     0.34800
C4811       C  0.91710614  0.74025148  0.89145949    -0.26900
C4812       C  0.93192139  0.72041663  0.91744186    -0.15000
C4813       C  0.92084111  0.72382645  0.94939529     0.35700
C4814       C  0.88994016  0.73688666  0.95319800    -0.26300
C4815       C  0.87272346  0.75242517  0.92656924    -0.15600
C4816       C  0.88844004  0.75831591  0.89655627     0.36700
N4817       N  0.87489962  0.78174533  0.87157261    -0.89800
H4818       H  0.92662377  0.74057042  0.86709155     0.17900
H4819       H  0.87873053  0.73307846  0.97687292     0.17900
N4820       N  0.93983528  0.71480310  0.97821236    -0.88900
H4821       H  0.87589166  0.80549262  0.88010494     0.35200
H4822       H  0.89051195  0.78392006  0.85150218     0.40300
H4823       H  0.96481289  0.71299726  0.97314383     0.39900
H4824       H  0.93088959  0.69212939  0.98973408     0.34800
C4825       C  0.96504600  0.84876193  0.60838547    -0.26900
C4826       C  0.97082873  0.82295336  0.58844378    -0.15000
C4827       C  0.97763015  0.78992927  0.60260061     0.35700
C4828       C  0.97454886  0.78299226  0.63597224    -0.26300
C4829       C  0.96841265  0.80873791  0.65577169    -0.15600
C4830       C  0.96381034  0.84189605  0.64187674     0.36700
N4831       N  0.95675180  0.86851687  0.66150305    -0.89800
H4832       H  0.95911413  0.87404856  0.59813149     0.17900
H4833       H  0.97722829  0.75725226  0.64657166     0.17900
N4834       N  0.98840670  0.76316537  0.58426857    -0.88900
H4835       H  0.93415997  0.87915133  0.65413184     0.35200
H4836       H  0.97490852  0.88699077  0.65730278     0.40300
H4837       H  0.99368275  0.77177226  0.56022018     0.39900
H4838       H  0.96977957  0.74502716  0.58460927     0.34800
C4839       C  0.86517084  0.77124348  0.73292221    -0.26900
C4840       C  0.88824238  0.76059652  0.71119511    -0.15000
C4841       C  0.88001453  0.76221953  0.67802603     0.35700
C4842       C  0.85436053  0.78319846  0.66655966    -0.26300
C4843       C  0.83452427  0.79926596  0.68812699    -0.15600
C4844       C  0.83730181  0.78886596  0.72169995     0.36700
N4845       N  0.81293148  0.79684955  0.74464718    -0.89800
H4846       H  0.87093280  0.77109973  0.75832769     0.17900
H4847       H  0.85186741  0.78845357  0.64058898     0.17900
N4848       N  0.90021477  0.74715516  0.65499458    -0.88900
H4849       H  0.80419829  0.77425808  0.75654758     0.35200
H4850       H  0.82416543  0.81048021  0.76202234     0.40300
H4851       H  0.92000102  0.73445290  0.66664664     0.39900
H4852       H  0.90989418  0.76649606  0.63896022     0.34800
C4853       C  0.96633961  0.87749132  0.73006833    -0.26900
C4854       C  0.93763082  0.85799479  0.73371165    -0.15000
C4855       C  0.90682384  0.87312313  0.73079082     0.35700
C4856       C  0.90498651  0.90750063  0.72231210    -0.26300
C4857       C  0.93376181  0.92684425  0.71745868    -0.15600
C4858       C  0.96461320  0.91226438  0.72449413     0.36700
N4859       N  0.99391045  0.93248946  0.72458223    -0.89800
H4860       H  0.99011633  0.86551205  0.73026837     0.17900
H4861       H  0.88093694  0.91806973  0.71691046     0.17900
N4862       N  0.87747886  0.85335281  0.73422706    -0.88900
H4863       H  0.51461226  0.91616781  0.73011183     0.35200
H4864       H  0.99159448  0.94820759  0.74325541     0.40300
H4865       H  0.86319323  0.86252798  0.75237031     0.39900
H4866       H  0.86448327  0.85723299  0.71238712     0.34800
C4867       C  0.96962499  0.87519365  0.80623419    -0.26900
C4868       C  0.50238025  0.88226437  0.80156388    -0.15000
C4869       C  0.52350501  0.85619688  0.79138936     0.35700
C4870       C  0.51026650  0.82610696  0.78270197    -0.26300
C4871       C  0.97697360  0.82154392  0.78433501    -0.15600
C4872       C  0.95746540  0.84332355  0.80086918     0.36700
N4873       N  0.92432389  0.83424196  0.80937431    -0.89800
H4874       H  0.95367822  0.89212872  0.81782721     0.17900
H4875       H  0.52593996  0.80900322  0.77096347     0.17900
N4876       N  0.55846148  0.85870772  0.78889513    -0.88900
H4877       H  0.90866658  0.85270784  0.79838559     0.35200
H4878       H  0.92209628  0.83476245  0.83447066     0.40300
H4879       H  0.56879354  0.86368604  0.81100430     0.39900
H4880       H  0.56471418  0.87657276  0.76984751     0.34800
C4881       C  0.53480401  0.80053834  0.67743948    -0.26900
C4882       C  0.02053384  0.77537120  0.69715806    -0.15000
C4883       C  0.02609036  0.74204220  0.69099202     0.35700
C4884       C  0.54190326  0.73464300  0.66241225    -0.26300
C4885       C  0.55016089  0.76112579  0.63836591    -0.15600
C4886       C  0.54813925  0.79453862  0.64729388     0.36700
N4887       N  0.55911013  0.82248605  0.62560124    -0.89800
H4888       H  0.53079283  0.82640771  0.68250028     0.17900
H4889       H  0.54722124  0.70865305  0.65933595     0.17900
N4890       N  0.01321109  0.71486580  0.71240046    -0.88900
H4891       H  0.53925107  0.83876047  0.62062352     0.35200
H4892       H  0.57712568  0.83545041  0.63751698     0.40300
H4893       H  0.99732062  0.70082584  0.69905470     0.39900
H4894       H  0.03283041  0.69936327  0.72038951     0.34800
C4895       C  0.91661135  0.73387685  0.79117758    -0.26900
C4896       C  0.93101364  0.72426288  0.76258550    -0.15000
C4897       C  0.91868120  0.69607919  0.74878718     0.35700
C4898       C  0.88745897  0.68427765  0.75762727    -0.26300
C4899       C  0.86960636  0.69932076  0.78135658    -0.15600
C4900       C  0.88541653  0.72154063  0.80042827     0.36700
N4901       N  0.86839180  0.73499045  0.82632520    -0.89800
H4902       H  0.92640223  0.75515596  0.80255768     0.17900
H4903       H  0.87625965  0.66531248  0.74409680     0.17900
N4904       N  0.93557255  0.68298146  0.72246610    -0.88900
H4905       H  0.86156207  0.71505259  0.84324853     0.35200
H4906       H  0.84706379  0.74699585  0.81707593     0.40300
H4907       H  0.91989638  0.68452534  0.70234205     0.39900
H4908       H  0.94019348  0.65745717  0.72912117     0.34800
C4909       C  0.59687496  0.63414579  0.52840239    -0.26900
C4910       C  0.59758729  0.60835011  0.55404567    -0.15000
C4911       C  0.61121208  0.61679158  0.58375142     0.35700
C4912       C  0.60849901  0.64961018  0.59168483    -0.26300
C4913       C  0.59823441  0.67470628  0.56835163    -0.15600
C4914       C  0.59640690  0.66780916  0.53547256     0.36700
N4915       N  0.59042399  0.69362504  0.50962985    -0.89800
H4916       H  0.59243041  0.62852819  0.50372045     0.17900
H4917       H  0.61482645  0.65544736  0.61593616     0.17900
N4918       N  0.63031022  0.59353513  0.60442701    -0.88900
H4919       H  0.61016512  0.71046612  0.50833097     0.35200
H4920       H  0.56906175  0.70651252  0.51488734     0.40300
H4921       H  0.62094146  0.59277756  0.62799797     0.39900
H4922       H  0.65418220  0.60316839  0.60516202     0.34800
C4923       C  0.53476618  0.58519478  0.65940541    -0.26900
C4924       C  0.55040294  0.55971441  0.67872697    -0.15000
C4925       C  0.54830921  0.52606645  0.67212090     0.35700
C4926       C  0.53597483  0.51932981  0.64208975    -0.26300
C4927       C  0.52597771  0.54628107  0.61997858    -0.15600
C4928       C  0.52149381  0.57837765  0.63027065     0.36700
N4929       N  0.50604833  0.60484560  0.61023186    -0.89800
H4930       H  0.53338520  0.61058306  0.66673485     0.17900
H4931       H  0.53833499  0.49419445  0.63444062     0.17900
N4932       N  0.55950350  0.49945700  0.69526062    -0.88900
H4933       H  0.98390482  0.60983840  0.62190255     0.35200
H4934       H  0.52214552  0.62544722  0.60830873     0.40300
H4935       H  0.57770336  0.48588151  0.68452936     0.39900
H4936       H  0.53974198  0.48314632  0.70080389     0.34800
C4937       C  0.64397208  0.52699863  0.54899114    -0.26900
C4938       C  0.62478682  0.51706106  0.57632052    -0.15000
C4939       C  0.63923232  0.51471018  0.60734910     0.35700
C4940       C  0.67005015  0.52923463  0.61079509    -0.26300
C4941       C  0.68706985  0.54356152  0.58332789    -0.15600
C4942       C  0.67632654  0.53662775  0.55236519     0.36700
N4943       N  0.69762208  0.54057513  0.52458080    -0.89800
H4944       H  0.63328156  0.52994559  0.52503291     0.17900
H4945       H  0.67897149  0.53158337  0.63502596     0.17900
N4946       N  0.62191688  0.50116305  0.63579805    -0.88900
H4947       H  0.68542556  0.53386434  0.50386770     0.35200
H4948       H  0.71691590  0.52345404  0.52895249     0.40300
H4949       H  0.60036265  0.48912553  0.62942230     0.39900
H4950       H  0.61522490  0.52141900  0.64858955     0.34800
C4951       C  0.95410495  0.53912885  0.60614154    -0.26900
C4952       C  0.96002457  0.50757084  0.62372016    -0.15000
C4953       C  0.96978466  0.98403194  0.60343914     0.35700
C4954       C  0.48280117  0.49264993  0.57307862    -0.26300
C4955       C  0.48718043  0.52623080  0.56254559    -0.15600
C4956       C  0.46616924  0.54968333  0.57485445     0.36700
N4957       N  0.46011843  0.58190180  0.55747603    -0.89800
H4958       H  0.94013220  0.55835280  0.61679573     0.17900
H4959       H  0.49409563  0.97013786  0.56089685     0.17900
N4960       N  0.96985326  0.94869830  0.61380927    -0.88900
H4961       H  0.47032649  0.58242119  0.53428117     0.35200
H4962       H  0.43474255  0.58409496  0.55401868     0.40300
H4963       H  0.94743600  0.94064307  0.62387254     0.39900
H4964       H  0.99015013  0.94237632  0.62857650     0.34800
C4965       C  0.52617861  0.57831992  0.97563955    -0.26900
C4966       C  0.54027769  0.58991651  0.50506247    -0.15000
C4967       C  0.52689187  0.62022339  0.51455759     0.35700
C4968       C  0.50740382  0.64139805  0.99240910    -0.26300
C4969       C  0.50396019  0.63289568  0.96087477    -0.15600
C4970       C  0.50685308  0.59889926  0.95475759     0.36700
N4971       N  0.49022681  0.58565662  0.92796145    -0.89800
H4972       H  0.53234831  0.55384629  0.96864023     0.17900
H4973       H  0.50566518  0.66759797  0.49743288     0.17900
N4974       N  0.52580242  0.62761132  0.54754166    -0.88900
H4975       H  0.49486994  0.55989612  0.92765818     0.35200
H4976       H  0.46498398  0.58812618  0.93162357     0.40300
H4977       H  0.53639951  0.65120534  0.54924845     0.39900
H4978       H  0.50107673  0.63092122  0.55299613     0.34800
C4979       C  0.60576860  0.95634850  0.55060595    -0.26900
C4980       C  0.58719268  0.47981936  0.53062616    -0.15000
C4981       C  0.59776520  0.48602883  0.49830473     0.35700
C4982       C  0.62957786  0.97706644  0.98904499    -0.26300
C4983       C  0.65033245  0.95833038  0.51142725    -0.15600
C4984       C  0.63807628  0.94884677  0.54323216     0.36700
N4985       N  0.65748706  0.93157163  0.56856055    -0.89800
H4986       H  0.59743905  0.95001429  0.57533253     0.17900
H4987       H  0.63569676  0.98228130  0.96381483     0.17900
N4988       N  0.58312401  0.51065311  0.97211217    -0.88900
H4989       H  0.67740866  0.94682536  0.57353697     0.35200
H4990       H  0.66577309  0.90861168  0.56156066     0.40300
H4991       H  0.58324089  0.53496407  0.97932851     0.39900
H4992       H  0.55928458  0.50143767  0.96977880     0.34800
loop_ 
_geom_bond_atom_site_label_1 
_geom_bond_atom_site_label_2 
_geom_bond_distance 
_geom_bond_site_symmetry_2 
_ccdc_geom_bond_type 
C1            H2   1.104       .  S
C1            C7   1.542       .  S
C1            C6   1.500       .  S
C1            C5   1.551       .  S
C3            H4   1.098       .  S
C3            C9   1.511       .  S
C3            C8   1.521       .  S
C3           C10   1.491       .  S
C5            C8   1.391       .  D
C5          C598   1.467       .  S
C6            C9   1.356       .  D
C6          C587   1.456   1_455  S
C7           C10   1.371       .  D
C7          C612   1.477   1_545  S
C8          C542   1.504       .  S
C9          C559   1.439       .  S
C10         C570   1.472       .  S
C11          H12   1.110       .  S
C11          C17   1.543       .  S
C11          C16   1.542       .  S
C11          C15   1.564       .  S
C13          H14   1.113       .  S
C13          C19   1.505       .  S
C13          C18   1.489       .  S
C13          C20   1.506       .  S
C15          C18   1.370       .  D
C15         C514   1.481       .  S
C16          C19   1.375       .  D
C16         C528   1.468       .  S
C17          C20   1.372       .  D
C17         C503   1.480       .  S
C18         C461   1.469       .  S
C19         C472   1.465       .  S
C20         C486   1.454       .  S
C21          C22   1.517       .  S
C21          C27   1.504       .  S
C21        C2521   1.536   1_455  S
C21         C601   1.475       .  S
C22          C23   1.358       .  D
C22          H29   1.086       .  S
C23        C2520   1.615   1_455  S
C23         C150   1.529       .  S
C24          H30   1.108       .  S
C24          C28   1.615       .  S
C24          C26   1.513       .  S
C24        C2519   1.610       .  S
C25        C2517   1.532       .  S
C25          C26   1.365       .  D
C25          H31   1.084       .  S
C26         C444   1.478       .  S
C27        C2524   1.336   1_455  D
C27          H32   1.086       .  S
C28        C2523   1.338       .  D
C28          C67   1.549       .  S
C33          C34   1.540       .  S
C33          C39   1.504       .  S
C33          C37   1.600       .  S
C33         C198   1.559       .  S
C34          C35   1.364       .  D
C34          H41   1.086       .  S
C35          C36   1.515       .  S
C35         C531   1.475       .  S
C36          H42   1.112       .  S
C36          C40   1.538       .  S
C36          C38   1.505       .  S
C37          C38   1.420       .  D
C37          H43   1.084       .  S
C38          C71   1.525       .  S
C39          C40   1.337       .  D
C39          H44   1.088       .  S
C40         C433   1.427       .  S
C45          C51   1.518       .  S
C45          C49   1.558       .  S
C45        C1294   1.503   1_545  S
C45        C1650   1.509   1_545  S
C46        C1293   1.502       .  S
C46          C47   1.387       .  D
C46          H53   1.087       .  S
C47        C1296   1.658       .  S
C47         C270   1.561       .  S
C48          H54   1.110       .  S
C48          C52   1.637       .  S
C48          C50   1.509       .  S
C48        C1295   1.659       .  S
C49          C50   1.352       .  D
C49          H55   1.086       .  S
C50         C416   1.459       .  S
C51          C52   1.332       .  D
C51        H1304   1.091   1_545  S
C52          C70   1.602       .  S
H56        C1299   1.091       .  S
O57         Ni63   1.919       .  S
O57          C78   1.283       .  A
O58         Ni81   2.012       .  S
O58          C67   1.309       .  A
O59         Ni63   1.857       .  S
O59         Ni81   1.880       .  S
O59         Ni75   1.870       .  S
O59          H82   0.967       .  S
C60        C1367   1.561   1_545  S
C60          O69   1.302       .  A
C60        O3821   1.298   1_455  A
O61       Ni2576   1.974       .  S
O61          C67   1.289       .  A
O62         Ni80   1.908       .  S
O62          C64   1.265       .  A
Ni63         O66   1.923       .  S
Ni63         O68   1.936       .  S
C64         C167   1.562       .  S
C64        O2570   1.303   1_455  A
O65         Ni81   2.030       .  S
O65          C71   1.335       .  A
O66          C71   1.284       .  A
O68          C70   1.283       .  A
O69         Ni80   2.014       .  S
C70          O76   1.277       .  A
H72          O73   0.965       .  S
O73         Ni81   1.955       .  S
O73         Ni75   1.898       .  S
O73       Ni2576   1.855       .  S
O74         Ni75   2.014       .  S
O74        C2560   1.306       .  A
Ni75         O79   2.024       .  S
Ni75       O1325   1.964       .  S
O76         Ni81   2.021       .  S
O77       Ni1323   1.964       .  S
O77        C3804   1.299       .  A
C78         C229   1.524       .  S
C78          O79   1.317       .  A
Ni80       O2557   1.978   1_455  S
Ni80       O2569   1.855   1_455  S
C83          H84   1.111       .  S
C83          C89   1.502       .  S
C83          C88   1.508       .  S
C83          C87   1.522       .  S
C85          H86   1.112       .  S
C85          C91   1.535       .  S
C85          C90   1.543       .  S
C85          C92   1.511       .  S
C87          C90   1.385       .  D
C87         C419   1.499       .  S
C88          C91   1.377       .  D
C88         C447   1.475       .  S
C89          C92   1.359       .  D
C89         C430   1.429       .  S
C90         C374   1.453       .  S
C91         C360   1.461       .  S
C92         C391   1.465       .  S
C93          C94   1.521   1_556  S
C93          C99   1.493       .  S
C93         C721   1.546       .  S
C93         C615   1.508   1_556  S
C94          C95   1.379       .  D
C94         H101   1.085       .  S
C95         C720   1.604   1_554  S
C95         C890   1.547       .  S
C96         H102   1.109       .  S
C96         C100   1.607       .  S
C96          C98   1.515       .  S
C96         C719   1.608       .  S
C97         C717   1.545       .  S
C97          C98   1.361       .  D
C97         H103   1.080       .  S
C98         C346   1.459       .  S
C99         C724   1.333       .  D
C99         H104   1.095   1_556  S
C100        C723   1.334       .  D
C100        C139   1.535       .  S
C105        C106   1.541       .  S
C105        C111   1.511       .  S
C105        C109   1.564       .  S
C105        C388   1.510       .  S
C106        C107   1.387       .  D
C106        H113   1.085       .  S
C107        C108   1.598       .  S
C107        C212   1.536       .  S
C108        H114   1.109       .  S
C108        C112   1.593       .  S
C108        C110   1.499       .  S
C109        C110   1.360       .  D
C109        H115   1.084       .  S
C110        C332   1.460       .  S
C111        C112   1.323       .  D
C111        H116   1.093       .  S
C112        C143   1.540       .  S
C117        C123   1.500       .  S
C117        C121   1.554       .  S
C117       C2614   1.525   1_455  S
C117        C500   1.534       .  S
C118       C2613   1.525       .  S
C118       C2615   1.388       .  D
C118        H125   1.086       .  S
C119        C120   1.627       .  S
C119       C2614   1.390   1_455  D
C119       C1308   1.560       .  S
C120        H126   1.106       .  S
C120        C124   1.621       .  S
C120        C122   1.504       .  S
C121        C122   1.372       .  D
C121        H127   1.078       .  S
C122        C321   1.485       .  S
C123        C124   1.328       .  D
C123        H128   1.089       .  S
C124        C142   1.571       .  S
O129       Ni135   1.935       .  S
O129        C150   1.270       .  A
O130       Ni153   1.994       .  S
O130        C139   1.298       .  A
O131       Ni135   1.931       .  S
O131       Ni153   1.933       .  S
O131       Ni147   1.930       .  S
O131        H154   0.967       .  S
C132       C2749   1.550   1_456  S
C132        O141   1.305   1_556  A
C132        O773   1.299       .  A
O133       Ni776   1.971       .  S
O133        C139   1.284       .  A
O134       Ni152   1.874   1_554  S
O134        C136   1.260       .  A
Ni135       O138   1.905       .  S
Ni135       O140   1.948       .  S
C136        C181   1.541       .  S
C136        O770   1.313   1_554  A
O137       Ni153   1.976       .  S
O137        C143   1.302       .  A
O138        C143   1.259       .  A
O140        C142   1.292       .  A
O141       Ni152   2.011   1_554  S
C142        O148   1.292       .  A
H144        O145   0.960       .  S
O145       Ni153   1.943       .  S
O145       Ni147   1.885       .  S
O145       Ni776   1.831       .  S
O146       Ni147   2.050       .  S
O146        C760   1.311       .  A
Ni147       O151   1.959       .  S
Ni147       O149   1.954       .  S
O148       Ni153   2.031       .  S
O149        C756   1.297       .  A
C150        O151   1.297       .  A
Ni152       O757   1.971       .  S
Ni152       O769   1.829       .  S
C155        C156   1.526       .  S
C155        C161   1.500       .  S
C155        C159   1.546       .  S
C155        C377   1.499       .  S
C156        C157   1.363       .  D
C156        H163   1.087       .  S
C157        C158   1.597       .  S
C157        C284   1.539       .  S
C158        H164   1.105       .  S
C158        C162   1.608       .  S
C158        C160   1.517       .  S
C159        C160   1.374       .  D
C159        H165   1.082       .  S
C160        C573   1.474       .  S
C161        C162   1.339       .  D
C161        H166   1.091       .  S
C162        C201   1.540       .  S
C167        C168   1.556       .  S
C167        C173   1.493       .  S
C167        C171   1.597       .  S
C168        C169   1.386       .  D
C168        H175   1.085       .  S
C169        C170   1.520       .  S
C169        C307   1.484       .  S
C170        H176   1.098       .  S
C170        C174   1.521       .  S
C170        C172   1.501       .  S
C171        C172   1.415       .  D
C171        H177   1.084       .  S
C172        C205   1.540       .  S
C173        C174   1.325       .  D
C173        H178   1.090       .  S
C174        C556   1.415       .  S
C179        C180   1.515       .  S
C179        C185   1.528       .  S
C179        C183   1.574       .  S
C179        C517   1.528       .  S
C180        C181   1.385       .  D
C180        H187   1.086       .  S
C181        C182   1.630       .  S
C182        H188   1.110       .  S
C182        C186   1.621       .  S
C182        C184   1.487       .  S
C183        C184   1.367       .  D
C183        H189   1.084       .  S
C184        C545   1.449       .  S
C185        C186   1.331       .  D
C185        H190   1.092       .  S
C186        C204   1.585       .  S
O191       Ni197   1.940       .  S
O191        C212   1.285       .  A
O192       Ni215   2.014       .  S
O192        C201   1.309       .  A
O193       Ni197   1.871       .  S
O193       Ni215   1.880       .  S
O193       Ni209   1.880       .  S
O193        H216   0.967       .  S
C194        C241   1.555       .  S
C194        O211   1.300       .  A
C194        O203   1.297       .  A
O195       Ni214   1.964       .  S
O195        C201   1.284       .  A
O196       Ni214   1.922       .  S
O196        C198   1.269       .  A
Ni197       O200   1.926       .  S
Ni197       O202   1.933       .  S
C198        O208   1.300       .  A
O199       Ni215   2.043       .  S
O199        C205   1.338       .  A
O200        C205   1.288       .  A
O202        C204   1.280       .  A
O203       Ni214   2.001       .  S
C204        O210   1.270       .  A
H206        O207   0.964       .  S
O207       Ni215   1.951       .  S
O207       Ni209   1.896       .  S
O207       Ni214   1.867       .  S
O208       Ni209   1.988       .  S
Ni209       O213   2.022       .  S
Ni209       O211   1.963       .  S
O210       Ni215   2.004       .  S
C212        O213   1.315       .  A
C217        H218   1.107       .  S
C217        C223   1.542       .  S
C217        C222   1.530       .  S
C217        C221   1.540       .  S
C219        H220   1.114       .  S
C219        C225   1.511       .  S
C219        C224   1.498       .  S
C219        C226   1.497       .  S
C221        C224   1.378       .  D
C221        C405   1.472       .  S
C222        C225   1.372       .  D
C222        C304   1.462       .  S
C223        C226   1.373       .  D
C223        C293   1.471       .  S
C224        C349   1.456       .  S
C225        C318   1.465       .  S
C226        C335   1.467       .  S
C227        C228   1.542       .  S
C227        C233   1.513   1_545  S
C227       C1479   1.541   1_545  S
C227        C584   1.510       .  S
C228        C229   1.383       .  D
C228        H235   1.086       .  S
C229       C1478   1.588   1_545  S
C230        H236   1.109       .  S
C230        C234   1.579       .  S
C230        C232   1.502       .  S
C230       C1477   1.587       .  S
C231       C1475   1.540       .  S
C231        C232   1.362       .  D
C231        H237   1.075       .  S
C232        C489   1.450       .  S
C233       C1482   1.328       .  D
C233        H238   1.093   1_565  S
C234       C1481   1.328       .  D
C234        C277   1.528       .  S
C239        C240   1.519       .  S
C239        C245   1.505       .  S
C239        C243   1.572       .  S
C239        C290   1.512       .  S
C240        C241   1.388       .  D
C240        H247   1.085       .  S
C241        C242   1.630       .  S
C242        H248   1.105       .  S
C242        C246   1.633       .  S
C242        C244   1.501       .  S
C243        C244   1.364       .  D
C243        H249   1.083       .  S
C244        C475   1.487       .  S
C245        C246   1.324       .  D
C245        H250   1.090       .  S
C246        C276   1.585       .  S
C251        C257   1.493       .  S
C251        C255   1.533       .  S
C251        C876   1.534   1_554  S
C251        C987   1.507   1_554  S
C252        C875   1.535       .  S
C252        C877   1.385       .  D
C252        H259   1.087       .  S
C253        C254   1.594       .  S
C253        C876   1.384   1_554  D
C253       C2628   1.546   1_554  S
C254        H260   1.110       .  S
C254        C258   1.601       .  S
C254        C256   1.532       .  S
C255        C256   1.363       .  D
C255        H261   1.078       .  S
C256        C458   1.463       .  S
C257        C258   1.325       .  D
C257        H886   1.096       .  S
C258        C273   1.517       .  S
H262        C881   1.095       .  S
O263      Ni1517   1.938       .  S
O263        C284   1.274   1_565  A
O264       Ni287   1.975       .  S
O264        C273   1.293       .  A
O265       Ni269   1.938       .  S
O265       Ni287   1.931       .  S
O265       Ni281   1.937       .  S
O265        H288   0.966       .  S
C266        C719   1.551       .  S
C266        O275   1.303       .  A
C266        O907   1.302       .  A
O267       Ni286   1.970       .  S
O267        C273   1.283       .  A
O268       Ni910   1.888       .  S
O268        C270   1.265       .  A
Ni269       O272   1.906       .  S
Ni269       O274   1.956       .  S
Ni269      O1511   1.938       .  S
C270        O904   1.311       .  A
O271       Ni287   1.953       .  S
O271        C277   1.295       .  A
O272        C277   1.260       .  A
O274        C276   1.298       .  A
O275       Ni910   2.008       .  S
C276        O282   1.290       .  A
H278        O279   0.961       .  S
O279       Ni287   1.933       .  S
O279       Ni281   1.890       .  S
O279       Ni286   1.836       .  S
O280       Ni281   2.062       .  S
O280        C894   1.311   1_554  A
Ni281       O283   1.957       .  S
Ni281      O1533   1.965       .  S
O282       Ni287   2.027       .  S
O283        C890   1.301       .  A
C284        O285   1.296       .  A
O285      Ni1529   1.963   1_545  S
Ni286       O892   1.890   1_554  S
Ni286       O899   2.005       .  S
C289        C290   1.421       .  A
C289        C294   1.380       .  A
C289        H296   1.081       .  S
C290        C291   1.420       .  A
C291        C292   1.399       .  A
C291        N298   1.431       .  S
C292        C293   1.407       .  A
C292        H297   1.085       .  S
C293        C294   1.395       .  A
C294        N295   1.432       .  S
N295        H299   1.046       .  S
N295        H300   1.046       .  S
N298        H301   1.044       .  S
N298        H302   1.044       .  S
C303        C308   1.390       .  A
C303       C1552   1.386       .  A
C303        H310   1.085       .  S
C304        C305   1.398       .  A
C304       C1551   1.386       .  A
C305       C1554   1.396       .  A
C305        N312   1.431       .  S
C306        C307   1.408       .  A
C306       C1553   1.396       .  A
C306        H311   1.083       .  S
C307        C308   1.426       .  A
C308        N309   1.429       .  S
N309        H313   1.046       .  S
N309        H314   1.045       .  S
N312        H315   1.045       .  S
N312        H316   1.046       .  S
C317        C318   1.402       .  A
C317        C322   1.401       .  A
C317        H324   1.084       .  S
C318        C319   1.407       .  A
C319        C320   1.390       .  A
C319        N326   1.431       .  S
C320        C321   1.403       .  A
C320        H325   1.082       .  S
C321        C322   1.413       .  A
C322        N323   1.432       .  S
N323        H327   1.046       .  S
N323        H328   1.046       .  S
N326        H329   1.044       .  S
N326        H330   1.044       .  S
C331        C332   1.402       .  A
C331        C336   1.386       .  A
C331        H338   1.082       .  S
C332        C333   1.410       .  A
C333        C334   1.389       .  A
C333        N340   1.437       .  S
C334        C335   1.403       .  A
C334        H339   1.082       .  S
C335        C336   1.395       .  A
C336        N337   1.427       .  S
N337        H341   1.045       .  S
N337        H342   1.044       .  S
N340        H343   1.044       .  S
N340        H344   1.045       .  S
C345        C346   1.403       .  A
C345        C350   1.394       .  A
C345        H352   1.083       .  S
C346        C347   1.413       .  A
C347        C348   1.381       .  A
C347        N354   1.438       .  S
C348        C349   1.395       .  A
C348        H353   1.083       .  S
C349        C350   1.401       .  A
C350        N351   1.435       .  S
N351        H355   1.045       .  S
N351        H356   1.045       .  S
N354        H357   1.044       .  S
N354       H1606   1.045       .  S
H358       N1602   1.045   1_545  S
C359        C360   1.386       .  A
C359        C988   1.386       .  A
C359        H990   1.083       .  S
C360        C361   1.400       .  A
C361        C362   1.392       .  A
C361        N368   1.434       .  S
C362        C363   1.418       .  A
C362        H367   1.084       .  S
C363        C875   1.511       .  S
C363        C988   1.436       .  A
C364        C983   1.384       .  A
C364        C987   1.435   1_554  A
C364        N365   1.432       .  S
N365        H369   1.046       .  S
N365        H370   1.046       .  S
H366        C983   1.083       .  S
N368        H371   1.044       .  S
N368        H372   1.046       .  S
C373        C378   1.384       .  A
C373        C998   1.395       .  A
C373        H380   1.079       .  S
C374        C375   1.401       .  A
C374        C997   1.396       .  A
C375       C1000   1.386       .  A
C375        N382   1.434       .  S
C376        C377   1.412       .  A
C376        C999   1.388       .  A
C376        H381   1.082       .  S
C377        C378   1.421       .  A
C378        N379   1.441       .  S
N379        H383   1.046       .  S
N379        H384   1.045       .  S
N382        H385   1.045       .  S
N382        H386   1.043       .  S
C387        C388   1.423       .  A
C387        C392   1.385       .  A
C387        H394   1.080       .  S
C388        C389   1.414       .  A
C389        C390   1.409       .  A
C389        N396   1.432       .  S
C390        C391   1.409       .  A
C390        H395   1.083       .  S
C391        C392   1.383       .  A
C392        N393   1.431       .  S
N393        H397   1.046       .  S
N393        H398   1.045       .  S
N396        H399   1.045       .  S
N396        H400   1.044       .  S
C401        C402   1.416       .  A
C401        C406   1.387       .  A
C401       H1656   1.080       .  S
C402       C1293   1.510       .  S
C402        C403   1.415       .  A
C403        C404   1.401       .  A
C403        N410   1.432       .  S
C404        C405   1.405       .  A
C404        H409   1.084       .  S
C405        C406   1.401       .  A
C406        N407   1.437       .  S
N407        H411   1.046       .  S
N407        H412   1.045       .  S
H408       C1649   1.081       .  S
N410        H413   1.046       .  S
N410        H414   1.046       .  S
C415        C416   1.388       .  A
C415        C420   1.391       .  A
C415        H422   1.081       .  S
C416        C417   1.404       .  A
C417        C418   1.402       .  A
C417        N424   1.439       .  S
C418        C419   1.411       .  A
C418        H423   1.077       .  S
C419        C420   1.408       .  A
C420        N421   1.423       .  S
N421        H425   1.046       .  S
N421        H426   1.041       .  S
N424        H427   1.045       .  S
N424        H428   1.046       .  S
C429        C430   1.402       .  A
C429        C434   1.382       .  A
C429        H436   1.079       .  S
C430        C431   1.395       .  A
C431        C432   1.379       .  A
C431        N438   1.439       .  S
C432        C433   1.403       .  A
C432        H437   1.084       .  S
C433        C434   1.390       .  A
C434        N435   1.438       .  S
N435        H439   1.045       .  S
N435        H440   1.046       .  S
N438        H441   1.046       .  S
N438        H442   1.045       .  S
C443        C444   1.406       .  A
C443        C448   1.402       .  A
C443        H450   1.081       .  S
C444        C445   1.416       .  A
C445        C446   1.378       .  A
C445        N452   1.437       .  S
C446        C447   1.399       .  A
C446        H451   1.079       .  S
C447        C448   1.401       .  A
C448        N449   1.435       .  S
N449        H453   1.043       .  S
N449        H454   1.045       .  S
N452        H455   1.043       .  S
N452        H456   1.045       .  S
C457        C458   1.399       .  A
C457        C462   1.386       .  A
C457        H464   1.082       .  S
C458        C459   1.416       .  A
C459        C460   1.389       .  A
C459        N466   1.438       .  S
C460        C461   1.398       .  A
C460        H465   1.082       .  S
C461        C462   1.401       .  A
C462        N463   1.426       .  S
N463        H467   1.046       .  S
N463        H468   1.045       .  S
N466        H469   1.044       .  S
N466        H470   1.045       .  S
C471        C472   1.398       .  A
C471        C476   1.392       .  A
C471        H478   1.076       .  S
C472        C473   1.409       .  A
C473        C474   1.393       .  A
C473        N480   1.436       .  S
C474        C475   1.405       .  A
C474        H479   1.080       .  S
C475        C476   1.415       .  A
C476        N477   1.433       .  S
N477        H481   1.045       .  S
N477        H482   1.046       .  S
N480        H483   1.044       .  S
N480        H484   1.044       .  S
C485        C486   1.402       .  A
C485        C490   1.382       .  A
C485        H492   1.081       .  S
C486        C487   1.393       .  A
C487        C488   1.384       .  A
C487        N494   1.430       .  S
C488        C489   1.405       .  A
C488        H493   1.081       .  S
C489        C490   1.402       .  A
C490        N491   1.438       .  S
N491        H496   1.045       .  S
N491       H2991   1.046       .  S
N494        H497   1.045       .  S
N494        H498   1.045       .  S
H495       N2987   1.046   1_455  S
C499        C504   1.401       .  A
C499       C2996   1.413       .  A
C499        H506   1.083       .  S
C500        C501   1.445       .  A
C500       C2995   1.414   1_455  A
C501        C502   1.393       .  A
C501        N508   1.429       .  S
C502       C2999   1.386   1_455  A
C502        H507   1.085       .  S
C503        C504   1.409       .  A
C503       C2998   1.386       .  A
C504        N505   1.432       .  S
N505        H509   1.044       .  S
N505        H510   1.045       .  S
N508        H511   1.042       .  S
N508        H512   1.042       .  S
C513        C518   1.403       .  A
C513       C3010   1.406       .  A
C513        H520   1.085       .  S
C514        C515   1.396       .  A
C514       C3009   1.408       .  A
C515       C3012   1.401       .  A
C515        N522   1.431       .  S
C516        C517   1.419       .  A
C516       C3011   1.400       .  A
C516        H521   1.078       .  S
C517        C518   1.417       .  A
C518        N519   1.432       .  S
N519        H523   1.046       .  S
N519        H524   1.045       .  S
N522        H525   1.045       .  S
N522        H526   1.044       .  S
C527        C528   1.409       .  A
C527        C532   1.403       .  A
C527        H534   1.084       .  S
C528        C529   1.400       .  A
C529        C530   1.391       .  A
C529        N536   1.432       .  S
C530        C531   1.406       .  A
C530        H535   1.082       .  S
C531        C532   1.398       .  A
C532        N533   1.426       .  S
N533        H537   1.045       .  S
N533        H538   1.046       .  S
N536        H539   1.045       .  S
N536        H540   1.045       .  S
C541        C542   1.404       .  A
C541        C546   1.400       .  A
C541        H548   1.081       .  S
C542        C543   1.417       .  A
C543        C544   1.381       .  A
C543        N550   1.428       .  S
C544        C545   1.384       .  A
C544        H549   1.082       .  S
C545        C546   1.414       .  A
C546        N547   1.431       .  S
N547        H551   1.044       .  S
N547        H552   1.045       .  S
N550        H553   1.046       .  S
N550        H554   1.046       .  S
C555        C556   1.387       .  A
C555        C560   1.372       .  A
C555        H562   1.086       .  S
C556        C557   1.395       .  A
C557        C558   1.387       .  A
C557        N564   1.432   1_545  S
C558        C559   1.402       .  A
C558        H563   1.084   1_545  S
C559        C560   1.400       .  A
C560        N561   1.424       .  S
N561        H566   1.047       .  S
N561       H3061   1.046   1_455  S
N564        H567   1.044       .  S
N564        H568   1.045       .  S
H565       N3057   1.045       .  S
C569        C570   1.401       .  A
C569        C574   1.384       .  A
C569        H576   1.080       .  S
C570        C571   1.403       .  A
C571        C572   1.391       .  A
C571        N578   1.435       .  S
C572        C573   1.409       .  A
C572        H577   1.077       .  S
C573        C574   1.408       .  A
C574        N575   1.438       .  S
N575        H579   1.046       .  S
N575        H580   1.046       .  S
N578        H581   1.044   1_545  S
N578        H582   1.045       .  S
C583        C584   1.412       .  A
C583       C3084   1.395       .  A
C583        H590   1.084       .  S
C584       C1833   1.450   1_545  A
C585       C1832   1.451       .  A
C585       C4330   1.386       .  A
C585        N592   1.432       .  S
C586        C587   1.378   1_565  A
C586       C4329   1.386       .  A
C586       H1839   1.085       .  S
C587        C588   1.400       .  A
C588       C3079   1.394       .  A
C588        N589   1.431       .  S
N589        H593   1.046       .  S
N589        H594   1.045       .  S
H591       C1834   1.085       .  S
N592        H595   1.040       .  S
N592        H596   1.043       .  S
C597        C602   1.379       .  A
C597       C1222   1.400       .  A
C597        H604   1.074       .  S
C598        C599   1.418       .  A
C598       C1221   1.400   1_554  A
C599       C1224   1.379   1_554  A
C599        N606   1.425       .  S
C600        C601   1.386       .  A
C600       C1223   1.378       .  A
C600       H1229   1.084       .  S
C601        C602   1.408       .  A
C602        N603   1.440   1_455  S
N603        H607   1.046       .  S
N603        H608   1.046       .  S
H605       C1224   1.084       .  S
N606        H609   1.042       .  S
N606        H610   1.044   1_455  S
C611        C616   1.391       .  A
C611       C1860   1.402       .  A
C611        H618   1.085       .  S
C612        C613   1.404   1_554  A
C612       C1859   1.405       .  A
C613       C2486   1.378       .  A
C613       N1244   1.426   1_565  S
C614       C2485   1.378       .  A
C614       C1239   1.416       .  A
C614        H619   1.075       .  S
C615        C616   1.426       .  A
C615       C1238   1.413   1_554  A
C616        N617   1.434       .  S
N617        H621   1.044       .  S
N617        H622   1.043       .  S
N620       C1237   1.425   1_545  S
N620        H623   1.041       .  S
N620        H624   1.044   1_545  S
C625        H626   1.104       .  S
C625        C631   1.545       .  S
C625        C630   1.505       .  S
C625        C629   1.554       .  S
C627        H628   1.094       .  S
C627        C633   1.510       .  S
C627        C632   1.520       .  S
C627        C634   1.490       .  S
C629        C632   1.392       .  D
C629       C1222   1.468       .  S
C630        C633   1.354       .  D
C630       C1211   1.460   1_455  S
C631        C634   1.372       .  D
C631       C1236   1.478   1_545  S
C632       C1166   1.507       .  S
C633       C1183   1.437       .  S
C634       C1194   1.474       .  S
C635        H636   1.110       .  S
C635        C641   1.542       .  S
C635        C640   1.539       .  S
C635        C639   1.558       .  S
C637        H638   1.114       .  S
C637        C643   1.507       .  S
C637        C642   1.488       .  S
C637        C644   1.504       .  S
C639        C642   1.372       .  D
C639       C1138   1.477       .  S
C640        C643   1.373       .  D
C640       C1152   1.467       .  S
C641        C644   1.373       .  D
C641       C1127   1.475       .  S
C642       C1085   1.465       .  S
C643       C1096   1.462       .  S
C644       C1110   1.459       .  S
C645        C646   1.521   1_655  S
C645        C651   1.507   1_655  S
C645       C3145   1.531       .  S
C645       C1225   1.476   1_655  S
C646        C647   1.359       .  D
C646        H653   1.086       .  S
C647       C3144   1.614   1_455  S
C647        C774   1.530       .  S
C648        H654   1.108       .  S
C648       C3143   1.614       .  S
C648        C652   1.619       .  S
C648        C650   1.509       .  S
C649       C3141   1.529       .  S
C649        C650   1.366       .  D
C649        H655   1.084       .  S
C650       C1068   1.477       .  S
C651       C3148   1.337   1_455  D
C651        H656   1.086       .  S
C652       C3147   1.337       .  D
C652        C691   1.553       .  S
C657        C658   1.541       .  S
C657        C663   1.505       .  S
C657        C661   1.600       .  S
C657        C822   1.559       .  S
C658        C659   1.364       .  D
C658        H665   1.087       .  S
C659        C660   1.514       .  S
C659       C1155   1.475       .  S
C660        H666   1.112       .  S
C660        C664   1.536       .  S
C660        C662   1.504       .  S
C661        C662   1.420       .  D
C661        H667   1.085       .  S
C662        C695   1.524       .  S
C663        C664   1.335       .  D
C663        H668   1.088       .  S
C664       C1057   1.428       .  S
C669       C1918   1.502   1_545  S
C669        C675   1.518       .  S
C669        C673   1.559       .  S
C669       C2274   1.510   1_545  S
C670       C1917   1.505       .  S
C670        C671   1.390       .  D
C670        H677   1.087       .  S
C671       C1920   1.659       .  S
C671        C894   1.564       .  S
C672        H678   1.110       .  S
C672       C1919   1.655       .  S
C672        C676   1.633       .  S
C672        C674   1.508       .  S
C673        C674   1.353       .  D
C673        H679   1.085       .  S
C674       C1040   1.459       .  S
C675        C676   1.332       .  D
C675       H1928   1.091   1_545  S
C676        C694   1.597       .  S
H680       C1923   1.091       .  S
O681       Ni687   1.918       .  S
O681        C702   1.282       .  A
O682       Ni705   2.016       .  S
O682        C691   1.309       .  A
O683       Ni687   1.855       .  S
O683       Ni705   1.881       .  S
O683       Ni699   1.866       .  S
O683        H706   0.967       .  S
C684       C1991   1.561   1_545  S
C684       O4445   1.300   1_455  A
C684        O693   1.301       .  A
O685      Ni3200   1.975       .  S
O685        C691   1.288       .  A
O686       Ni704   1.908       .  S
O686        C688   1.265       .  A
Ni687       O690   1.923       .  S
Ni687       O692   1.932       .  S
C688        C791   1.566       .  S
C688       O3194   1.306   1_455  A
O689       Ni705   2.029       .  S
O689        C695   1.335       .  A
O690        C695   1.284       .  A
O692        C694   1.283       .  A
O693       Ni704   2.011       .  S
C694        O700   1.276       .  A
H696        O697   0.964       .  S
O697       Ni705   1.954       .  S
O697       Ni699   1.899       .  S
O697      Ni3200   1.856       .  S
O698       Ni699   2.006       .  S
O698       C3184   1.303       .  A
Ni699       O703   2.025       .  S
Ni699      O1949   1.966       .  S
O700       Ni705   2.016       .  S
O701      Ni1947   1.967       .  S
O701       C4428   1.300       .  A
C702        C853   1.524       .  S
C702        O703   1.317       .  A
Ni704      O3181   1.974   1_455  S
Ni704      O3193   1.858   1_455  S
C707        H708   1.112       .  S
C707        C713   1.503       .  S
C707        C712   1.512       .  S
C707        C711   1.523       .  S
C709        H710   1.111       .  S
C709        C715   1.532       .  S
C709        C714   1.543       .  S
C709        C716   1.507       .  S
C711        C714   1.384       .  D
C711       C1043   1.494       .  S
C712        C715   1.377       .  D
C712       C1071   1.473       .  S
C713        C716   1.359       .  D
C713       C1054   1.433       .  S
C714        C998   1.455   1_556  S
C715        C984   1.462       .  S
C716       C1015   1.459       .  S
C717        C718   1.521       .  S
C717        C723   1.492       .  S
C717       C1239   1.510       .  S
C718        C719   1.380       .  D
C718        H725   1.085       .  S
C720        H726   1.109       .  S
C720        C724   1.603       .  S
C720        C722   1.514       .  S
C721        C722   1.361       .  D
C721        H727   1.081       .  S
C722        C970   1.456       .  S
C723        H728   1.095       .  S
C724        C763   1.530       .  S
C729        C730   1.539       .  S
C729        C735   1.511       .  S
C729        C733   1.564       .  S
C729       C1012   1.503       .  S
C730        C731   1.384       .  D
C730        H737   1.085       .  S
C731        C732   1.598       .  S
C731        C836   1.531       .  S
C732        H738   1.109       .  S
C732        C736   1.593       .  S
C732        C734   1.499       .  S
C733        C734   1.359       .  D
C733        H739   1.084       .  S
C734        C956   1.460       .  S
C735        C736   1.323       .  D
C735        H740   1.092       .  S
C736        C767   1.539       .  S
C741       C3238   1.526   1_455  S
C741        C747   1.499       .  S
C741        C745   1.551       .  S
C741       C1124   1.531       .  S
C742       C3237   1.524       .  S
C742       C3239   1.389       .  D
C742        H749   1.086       .  S
C743        C744   1.625       .  S
C743       C3238   1.390   1_455  D
C743       C1932   1.559       .  S
C744        H750   1.106       .  S
C744        C748   1.619       .  S
C744        C746   1.507       .  S
C745        C746   1.370       .  D
C745        H751   1.079       .  S
C746        C945   1.483       .  S
C747        C748   1.329       .  D
C747        H752   1.090       .  S
C748        C766   1.569       .  S
O753       Ni759   1.936       .  S
O753        C774   1.270       .  A
O754       Ni777   1.990       .  S
O754        C763   1.297       .  A
O755       Ni759   1.932       .  S
O755       Ni777   1.935       .  S
O755       Ni771   1.931       .  S
O755        H778   0.966       .  S
C756       C3373   1.548   1_455  S
C756        O765   1.305       .  A
O757        C763   1.283       .  A
O758       Ni776   1.879       .  S
O758        C760   1.261       .  A
Ni759       O762   1.903       .  S
Ni759       O764   1.946       .  S
C760        C805   1.539       .  S
O761       Ni777   1.975       .  S
O761        C767   1.301       .  A
O762        C767   1.257       .  A
O764        C766   1.292       .  A
O765       Ni776   2.011       .  S
C766        O772   1.292       .  A
H768        O769   0.959       .  S
O769       Ni777   1.942       .  S
O769       Ni771   1.884       .  S
O770       Ni771   2.055       .  S
Ni771       O775   1.964       .  S
Ni771       O773   1.957       .  S
O772       Ni777   2.031       .  S
C774        O775   1.298       .  A
C779        C780   1.527       .  S
C779        C785   1.497       .  S
C779        C783   1.544       .  S
C779       C1001   1.499       .  S
C780        C781   1.363       .  D
C780        H787   1.087       .  S
C781        C782   1.599       .  S
C781        C908   1.540       .  S
C782        H788   1.106       .  S
C782        C786   1.609       .  S
C782        C784   1.518       .  S
C783        C784   1.375       .  D
C783        H789   1.083       .  S
C784       C1197   1.473       .  S
C785        C786   1.337       .  D
C785        H790   1.092       .  S
C786        C825   1.538       .  S
C791        C792   1.560       .  S
C791        C797   1.493       .  S
C791        C795   1.599       .  S
C792        C793   1.387       .  D
C792        H799   1.085       .  S
C793        C794   1.517       .  S
C793        C931   1.483       .  S
C794        H800   1.098       .  S
C794        C798   1.517       .  S
C794        C796   1.504       .  S
C795        C796   1.416       .  D
C795        H801   1.083       .  S
C796        C829   1.545       .  S
C797        C798   1.324       .  D
C797        H802   1.090       .  S
C798       C1180   1.411       .  S
C803        C804   1.514       .  S
C803        C809   1.523       .  S
C803        C807   1.572       .  S
C803       C1141   1.533       .  S
C804        C805   1.384       .  D
C804        H811   1.085       .  S
C805        C806   1.635       .  S
C806        H812   1.110       .  S
C806        C810   1.618       .  S
C806        C808   1.489       .  S
C807        C808   1.370       .  D
C807        H813   1.084       .  S
C808       C1169   1.453       .  S
C809        C810   1.332       .  D
C809        H814   1.090       .  S
C810        C828   1.589       .  S
O815       Ni821   1.918       .  S
O815        C836   1.285       .  A
O816       Ni839   2.009       .  S
O816        C825   1.308       .  A
O817       Ni821   1.851       .  S
O817       Ni839   1.885       .  S
O817       Ni833   1.864       .  S
O817        H840   0.967       .  S
C818        C865   1.553       .  S
C818        O835   1.301       .  A
C818        O827   1.297       .  A
O819       Ni838   1.966       .  S
O819        C825   1.284       .  A
O820       Ni838   1.923       .  S
O820        C822   1.268       .  A
Ni821       O824   1.952       .  S
Ni821       O826   1.913       .  S
C822        O832   1.299       .  A
O823       Ni839   2.017       .  S
O823        C829   1.331       .  A
O824        C829   1.292       .  A
O826        C828   1.278       .  A
O827       Ni838   1.998       .  S
C828        O834   1.277       .  A
H830        O831   0.964       .  S
O831       Ni839   1.944       .  S
O831       Ni833   1.903       .  S
O831       Ni838   1.869       .  S
O832       Ni833   1.984       .  S
Ni833       O837   2.037       .  S
Ni833       O835   1.963       .  S
O834       Ni839   2.015       .  S
C836        O837   1.321       .  A
C841        H842   1.105       .  S
C841        C847   1.546       .  S
C841        C846   1.532       .  S
C841        C845   1.545       .  S
C843        H844   1.114       .  S
C843        C849   1.510       .  S
C843        C848   1.499       .  S
C843        C850   1.495       .  S
C845        C848   1.377       .  D
C845       C1029   1.477       .  S
C846        C849   1.372       .  D
C846        C928   1.464       .  S
C847        C850   1.371       .  D
C847        C917   1.473       .  S
C848        C973   1.457       .  S
C849        C942   1.464       .  S
C850        C959   1.464       .  S
C851        C852   1.543       .  S
C851        C857   1.513   1_545  S
C851       C2103   1.541   1_545  S
C851       C1208   1.510       .  S
C852        C853   1.385       .  D
C852        H859   1.086       .  S
C853       C2102   1.586   1_545  S
C854        H860   1.109       .  S
C854       C2101   1.589       .  S
C854        C858   1.582       .  S
C854        C856   1.504       .  S
C855       C2099   1.542       .  S
C855        C856   1.363       .  D
C855        H861   1.075       .  S
C856       C1113   1.454       .  S
C857       C2106   1.327       .  D
C857        H862   1.093       .  S
C858       C2105   1.329       .  D
C858        C901   1.531       .  S
C863        C864   1.520       .  S
C863        C869   1.507       .  S
C863        C867   1.571       .  S
C863        C914   1.510       .  S
C864        C865   1.388       .  D
C864        H871   1.084       .  S
C865        C866   1.629       .  S
C866        H872   1.105       .  S
C866        C870   1.632       .  S
C866        C868   1.504       .  S
C867        C868   1.362       .  D
C867        H873   1.083       .  S
C868       C1099   1.488       .  S
C869        C870   1.325       .  D
C869        H874   1.091       .  S
C870        C900   1.585       .  S
C875        C881   1.493       .  S
C875        C879   1.529       .  S
C876        H883   1.087       .  S
C877        C878   1.594       .  S
C877       C3252   1.549       .  S
C878        H884   1.109       .  S
C878        C882   1.600       .  S
C878        C880   1.530       .  S
C879        C880   1.363       .  D
C879        H885   1.075       .  S
C880       C1082   1.462       .  S
C881        C882   1.327       .  D
C882        C897   1.515       .  S
O887      Ni2141   1.945       .  S
O887        C908   1.275   1_565  A
O888       Ni911   1.974       .  S
O888        C897   1.293       .  A
O889       Ni893   1.937       .  S
O889       Ni911   1.928       .  S
O889       Ni905   1.938       .  S
O889        H912   0.966       .  S
C890        O899   1.303       .  A
O891       Ni910   1.970       .  S
O891        C897   1.283       .  A
O892        C894   1.266       .  A
Ni893      O2135   1.939       .  S
Ni893       O896   1.908       .  S
Ni893       O898   1.957       .  S
O895       Ni911   1.958       .  S
O895        C901   1.296       .  A
O896        C901   1.260       .  A
O898        C900   1.299       .  A
C900        O906   1.291       .  A
H902        O903   0.962       .  S
O903       Ni911   1.936       .  S
O903       Ni905   1.889       .  S
O903       Ni910   1.838       .  S
O904       Ni905   2.060       .  S
Ni905      O2157   1.965       .  S
Ni905       O907   1.961       .  S
O906       Ni911   2.028       .  S
C908        O909   1.297       .  A
O909      Ni2153   1.965   1_545  S
C913        C914   1.422       .  A
C913        C918   1.378       .  A
C913        H920   1.082       .  S
C914        C915   1.417       .  A
C915        C916   1.400       .  A
C915        N922   1.431       .  S
C916        C917   1.411       .  A
C916        H921   1.085       .  S
C917        C918   1.392       .  A
C918        N919   1.432       .  S
N919        H923   1.046       .  S
N919        H924   1.046       .  S
N922        H925   1.044       .  S
N922        H926   1.044       .  S
C927       C2176   1.387       .  A
C927        C932   1.390       .  A
C927        H934   1.085       .  S
C928       C2175   1.386       .  A
C928        C929   1.399       .  A
C929       C2178   1.397       .  A
C929        N936   1.432       .  S
C930       C2177   1.397       .  A
C930        C931   1.406       .  A
C930        H935   1.083       .  S
C931        C932   1.425       .  A
C932        N933   1.428       .  S
N933        H937   1.045       .  S
N933        H938   1.045       .  S
N936        H939   1.045       .  S
N936        H940   1.046       .  S
C941        C942   1.400       .  A
C941        C946   1.398       .  A
C941        H948   1.085       .  S
C942        C943   1.409       .  A
C943        C944   1.392       .  A
C943        N950   1.432       .  S
C944        C945   1.404       .  A
C944        H949   1.082       .  S
C945        C946   1.412       .  A
C946        N947   1.432       .  S
N947        H951   1.046       .  S
N947        H952   1.046       .  S
N950        H953   1.044       .  S
N950        H954   1.044       .  S
C955        C956   1.402       .  A
C955        C960   1.385       .  A
C955        H962   1.082       .  S
C956        C957   1.412       .  A
C957        C958   1.390       .  A
C957        N964   1.437       .  S
C958        C959   1.403       .  A
C958        H963   1.083       .  S
C959        C960   1.395       .  A
C960        N961   1.428       .  S
N961        H965   1.045       .  S
N961        H966   1.045       .  S
N964        H967   1.044       .  S
N964        H968   1.045       .  S
C969        C970   1.400       .  A
C969        C974   1.392       .  A
C969        H976   1.083       .  S
C970        C971   1.413       .  A
C971        C972   1.383       .  A
C971        N978   1.438       .  S
C972        C973   1.397       .  A
C972        H977   1.083       .  S
C973        C974   1.401       .  A
C974        N975   1.434       .  S
N975        H979   1.045       .  S
N975        H980   1.045       .  S
N978        H981   1.044       .  S
N978       H2230   1.045       .  S
H982       N2226   1.045   1_545  S
C983        C984   1.386   1_554  A
C984        C985   1.400       .  A
C985        C986   1.393       .  A
C985        N992   1.433       .  S
C986        C987   1.419       .  A
C986        H991   1.083       .  S
C988        N989   1.431       .  S
N989        H993   1.046       .  S
N989        H994   1.046       .  S
N992        H995   1.043       .  S
N992        H996   1.046       .  S
C997       C1002   1.387       .  A
C997       H1004   1.080       .  S
C998        C999   1.403       .  A
C999       N1006   1.434       .  S
C1000      C1001   1.412       .  A
C1000      H1005   1.082       .  S
C1001      C1002   1.421       .  A
C1002      N1003   1.441       .  S
N1003      H1007   1.046       .  S
N1003      H1008   1.045       .  S
N1006      H1009   1.045       .  S
N1006      H1010   1.042   1_554  S
C1011      C1012   1.422       .  A
C1011      C1016   1.383       .  A
C1011      H1018   1.081       .  S
C1012      C1013   1.412       .  A
C1013      C1014   1.406       .  A
C1013      N1020   1.432       .  S
C1014      C1015   1.407       .  A
C1014      H1019   1.083       .  S
C1015      C1016   1.383       .  A
C1016      N1017   1.432       .  S
N1017      H1021   1.046       .  S
N1017      H1022   1.045       .  S
N1020      H1023   1.045       .  S
N1020      H1024   1.044       .  S
C1025      C1026   1.418       .  A
C1025      C1030   1.390       .  A
C1025      H2280   1.080       .  S
C1026      C1917   1.513       .  S
C1026      C1027   1.414       .  A
C1027      C1028   1.403       .  A
C1027      N1034   1.432       .  S
C1028      C1029   1.407       .  A
C1028      H1033   1.084       .  S
C1029      C1030   1.399       .  A
C1030      N1031   1.437       .  S
N1031      H1035   1.046       .  S
N1031      H1036   1.046       .  S
H1032      C2273   1.080       .  S
N1034      H1037   1.046       .  S
N1034      H1038   1.046       .  S
C1039      C1040   1.389       .  A
C1039      C1044   1.390       .  A
C1039      H1046   1.082       .  S
C1040      C1041   1.405       .  A
C1041      C1042   1.401       .  A
C1041      N1048   1.438       .  S
C1042      C1043   1.409       .  A
C1042      H1047   1.078       .  S
C1043      C1044   1.404       .  A
C1044      N1045   1.421       .  S
N1045      H1049   1.045       .  S
N1045      H1050   1.038       .  S
N1048      H1051   1.044       .  S
N1048      H1052   1.046       .  S
C1053      C1054   1.401       .  A
C1053      C1058   1.383       .  A
C1053      H1060   1.078       .  S
C1054      C1055   1.396       .  A
C1055      C1056   1.381       .  A
C1055      N1062   1.438       .  S
C1056      C1057   1.402       .  A
C1056      H1061   1.084       .  S
C1057      C1058   1.390       .  A
C1058      N1059   1.438       .  S
N1059      H1063   1.045       .  S
N1059      H1064   1.045       .  S
N1062      H1065   1.045       .  S
N1062      H1066   1.045       .  S
C1067      C1068   1.406       .  A
C1067      C1072   1.402       .  A
C1067      H1074   1.081       .  S
C1068      C1069   1.415       .  A
C1069      C1070   1.377       .  A
C1069      N1076   1.437       .  S
C1070      C1071   1.399       .  A
C1070      H1075   1.079       .  S
C1071      C1072   1.400       .  A
C1072      N1073   1.435       .  S
N1073      H1077   1.042       .  S
N1073      H1078   1.044       .  S
N1076      H1079   1.043       .  S
N1076      H1080   1.045       .  S
C1081      C1082   1.401       .  A
C1081      C1086   1.388       .  A
C1081      H1088   1.082       .  S
C1082      C1083   1.416       .  A
C1083      C1084   1.385       .  A
C1083      N1090   1.438       .  S
C1084      C1085   1.395       .  A
C1084      H1089   1.082       .  S
C1085      C1086   1.401       .  A
C1086      N1087   1.427       .  S
N1087      H1091   1.046       .  S
N1087      H1092   1.045       .  S
N1090      H1093   1.044       .  S
N1090      H1094   1.046       .  S
C1095      C1096   1.397       .  A
C1095      C1100   1.393       .  A
C1095      H1102   1.079       .  S
C1096      C1097   1.407       .  A
C1097      C1098   1.391       .  A
C1097      N1104   1.436       .  S
C1098      C1099   1.405       .  A
C1098      H1103   1.079       .  S
C1099      C1100   1.417       .  A
C1100      N1101   1.432       .  S
N1101      H1105   1.046       .  S
N1101      H1106   1.046       .  S
N1104      H1107   1.044       .  S
N1104      H1108   1.044       .  S
C1109      C1110   1.403       .  A
C1109      C1114   1.385       .  A
C1109      H1116   1.080       .  S
C1110      C1111   1.394       .  A
C1111      C1112   1.384       .  A
C1111      N1118   1.430       .  S
C1112      C1113   1.405       .  A
C1112      H1117   1.081       .  S
C1113      C1114   1.403       .  A
C1114      N1115   1.438       .  S
N1115      H3615   1.046       .  S
N1115      H1120   1.045       .  S
N1118      H1121   1.045       .  S
N1118      H1122   1.045       .  S
H1119      N3611   1.046   1_455  S
C1123      C3620   1.414       .  A
C1123      C1128   1.399       .  A
C1123      H1130   1.084       .  S
C1124      C3619   1.413   1_455  A
C1124      C1125   1.446       .  A
C1125      C1126   1.393       .  A
C1125      N1132   1.430       .  S
C1126      C3623   1.385   1_455  A
C1126      H1131   1.085       .  S
C1127      C3622   1.386       .  A
C1127      C1128   1.405       .  A
C1128      N1129   1.432       .  S
N1129      H1133   1.045       .  S
N1129      H1134   1.045       .  S
N1132      H1135   1.042       .  S
N1132      H1136   1.042       .  S
C1137      C3634   1.407       .  A
C1137      C1142   1.404       .  A
C1137      H1144   1.085       .  S
C1138      C3633   1.406       .  A
C1138      C1139   1.397       .  A
C1139      C3636   1.400       .  A
C1139      N1146   1.431       .  S
C1140      C3635   1.404       .  A
C1140      C1141   1.419       .  A
C1140      H1145   1.078       .  S
C1141      C1142   1.419       .  A
C1142      N1143   1.433       .  S
N1143      H1147   1.045       .  S
N1143      H1148   1.045       .  S
N1146      H1149   1.045       .  S
N1146      H1150   1.044       .  S
C1151      C1152   1.407       .  A
C1151      C1156   1.401       .  A
C1151      H1158   1.084       .  S
C1152      C1153   1.401       .  A
C1153      C1154   1.392       .  A
C1153      N1160   1.431       .  S
C1154      C1155   1.405       .  A
C1154      H1159   1.082       .  S
C1155      C1156   1.397       .  A
C1156      N1157   1.425       .  S
N1157      H1161   1.044       .  S
N1157      H1162   1.046       .  S
N1160      H1163   1.045       .  S
N1160      H1164   1.045       .  S
C1165      C1166   1.405       .  A
C1165      C1170   1.401       .  A
C1165      H1172   1.082       .  S
C1166      C1167   1.418       .  A
C1167      C1168   1.382       .  A
C1167      N1174   1.429       .  S
C1168      C1169   1.384       .  A
C1168      H1173   1.082       .  S
C1169      C1170   1.416       .  A
C1170      N1171   1.431       .  S
N1171      H1175   1.044       .  S
N1171      H1176   1.045       .  S
N1174      H1177   1.046       .  S
N1174      H1178   1.045       .  S
C1179      C1180   1.384       .  A
C1179      C1184   1.369       .  A
C1179      H1186   1.086       .  S
C1180      C1181   1.397       .  A
C1181      C1182   1.388       .  A
C1181      N1188   1.432   1_545  S
C1182      C1183   1.402       .  A
C1182      H1187   1.084   1_545  S
C1183      C1184   1.399       .  A
C1184      N1185   1.423       .  S
N1185      H3685   1.045   1_455  S
N1185      H1190   1.046       .  S
N1188      H1191   1.044       .  S
N1188      H1192   1.045       .  S
H1189      N3681   1.045       .  S
C1193      C1194   1.402       .  A
C1193      C1198   1.384       .  A
C1193      H1200   1.079       .  S
C1194      C1195   1.405       .  A
C1195      C1196   1.393       .  A
C1195      N1202   1.434       .  S
C1196      C1197   1.406       .  A
C1196      H1201   1.077       .  S
C1197      C1198   1.406       .  A
C1198      N1199   1.438       .  S
N1199      H1203   1.046       .  S
N1199      H1204   1.046       .  S
N1202      H1205   1.044   1_545  S
N1202      H1206   1.044       .  S
C1207      C1208   1.411       .  A
C1207      C3708   1.395       .  A
C1207      H1214   1.084       .  S
C1208      C2457   1.451   1_545  A
C1209      C2456   1.449       .  A
C1209      C4954   1.386       .  A
C1209      N1216   1.432       .  S
C1210      C4953   1.387       .  A
C1210      C1211   1.379   1_565  A
C1210      H2463   1.085       .  S
C1211      C1212   1.403       .  A
C1212      C3703   1.397       .  A
C1212      N1213   1.432       .  S
N1213      H1217   1.046       .  S
N1213      H1218   1.045       .  S
H1215      C2458   1.085       .  S
N1216      H1219   1.041       .  S
N1216      H1220   1.043       .  S
C1221      C1226   1.379       .  A
C1221      H1228   1.075       .  S
C1222      C1223   1.417       .  A
C1223      N1230   1.423       .  S
C1224      C1225   1.387       .  A
C1225      C1226   1.408       .  A
C1226      N1227   1.440   1_455  S
N1227      H1231   1.046       .  S
N1227      H1232   1.045       .  S
N1230      H1233   1.042       .  S
N1230      H1234   1.044       .  S
C1235      C2484   1.403       .  A
C1235      C1240   1.392       .  A
C1235      H1242   1.085       .  S
C1236      C2483   1.406       .  A
C1236      C1237   1.405       .  A
C1237      C1862   1.379       .  A
C1238      C1861   1.378       .  A
C1238      H1243   1.075       .  S
C1239      C1240   1.426       .  A
C1240      N1241   1.434       .  S
N1241      H1245   1.044       .  S
N1241      H1246   1.043       .  S
N1244      H1247   1.040       .  S
N1244      H1248   1.045   1_545  S
C1249      H1250   1.105       .  S
C1249      C1255   1.540       .  S
C1249      C1254   1.501       .  S
C1249      C1253   1.551       .  S
C1251      H1252   1.094       .  S
C1251      C1257   1.509       .  S
C1251      C1256   1.520       .  S
C1251      C1258   1.489       .  S
C1253      C1256   1.393       .  D
C1253      C1846   1.467       .  S
C1254      C1257   1.354       .  D
C1254      C1835   1.457   1_455  S
C1255      C1258   1.373       .  D
C1255      C1860   1.471       .  S
C1256      C1790   1.505       .  S
C1257      C1807   1.437       .  S
C1258      C1818   1.475       .  S
C1259      H1260   1.110       .  S
C1259      C1265   1.541       .  S
C1259      C1264   1.538       .  S
C1259      C1263   1.559       .  S
C1261      H1262   1.114       .  S
C1261      C1267   1.506       .  S
C1261      C1266   1.489       .  S
C1261      C1268   1.504       .  S
C1263      C1266   1.371       .  D
C1263      C1762   1.478       .  S
C1264      C1267   1.374       .  D
C1264      C1776   1.466       .  S
C1265      C1268   1.372       .  D
C1265      C1751   1.475       .  S
C1266      C1709   1.466       .  S
C1267      C1720   1.462       .  S
C1268      C1734   1.457       .  S
C1269      C1270   1.521   1_655  S
C1269      C1275   1.505   1_655  S
C1269      C3769   1.532       .  S
C1269      C1849   1.477   1_655  S
C1270      C1271   1.359       .  D
C1270      H1277   1.086       .  S
C1271      C3768   1.612   1_455  S
C1271      C1398   1.528       .  S
C1272      H1278   1.108       .  S
C1272      C3767   1.612       .  S
C1272      C1276   1.617       .  S
C1272      C1274   1.510       .  S
C1273      C3765   1.535       .  S
C1273      C1274   1.368       .  D
C1273      H1279   1.084       .  S
C1274      C1692   1.480       .  S
C1275      C3772   1.337   1_455  D
C1275      H1280   1.086       .  S
C1276      C3771   1.336       .  D
C1276      C1315   1.552       .  S
C1281      C1282   1.539       .  S
C1281      C1287   1.505       .  S
C1281      C1285   1.602       .  S
C1281      C1446   1.561       .  S
C1282      C1283   1.365       .  D
C1282      H1289   1.086       .  S
C1283      C1284   1.514       .  S
C1283      C1779   1.473       .  S
C1284      H1290   1.111       .  S
C1284      C1288   1.535       .  S
C1284      C1286   1.505       .  S
C1285      C1286   1.421       .  D
C1285      H1291   1.084       .  S
C1286      C1319   1.529       .  S
C1287      C1288   1.337       .  D
C1287      H1292   1.088       .  S
C1288      C1681   1.427       .  S
C1293      C1299   1.516       .  S
C1293      C1297   1.556       .  S
C1294      C1295   1.389   1_565  D
C1294      H1301   1.087       .  S
C1295      C1518   1.561   1_545  S
C1296      H1302   1.110       .  S
C1296      C1300   1.637       .  S
C1296      C1298   1.511       .  S
C1297      C1298   1.353       .  D
C1297      H1303   1.085       .  S
C1298      C1664   1.459       .  S
C1299      C1300   1.332       .  D
C1300      C1318   1.602       .  S
O1305     Ni1311   1.922       .  S
O1305      C1326   1.283       .  A
O1306     Ni1329   2.014       .  S
O1306      C1315   1.309       .  A
O1307     Ni1311   1.854       .  S
O1307     Ni1329   1.881       .  S
O1307     Ni1323   1.870       .  S
O1307      H1330   0.967       .  S
C1308      O2573   1.299   1_455  A
C1308      O1317   1.302       .  A
O1309     Ni3824   1.976       .  S
O1309      C1315   1.290       .  A
O1310     Ni1328   1.906       .  S
O1310      C1312   1.265       .  A
Ni1311     O1314   1.927       .  S
Ni1311     O1316   1.937       .  S
C1312      C1415   1.563       .  S
C1312      O3818   1.305   1_455  A
O1313     Ni1329   2.032       .  S
O1313      C1319   1.335       .  A
O1314      C1319   1.285       .  A
O1316      C1318   1.284       .  A
O1317     Ni1328   2.011       .  S
C1318      O1324   1.278       .  A
H1320      O1321   0.965       .  S
O1321     Ni1329   1.958       .  S
O1321     Ni1323   1.900       .  S
O1321     Ni3824   1.857       .  S
O1322     Ni1323   2.007       .  S
O1322      C3808   1.303       .  A
Ni1323     O1327   2.024       .  S
O1324     Ni1329   2.023       .  S
O1325      C2556   1.300       .  A
C1326      C1477   1.526       .  S
C1326      O1327   1.317       .  A
Ni1328     O3805   1.974   1_455  S
Ni1328     O3817   1.855   1_455  S
C1331      H1332   1.112       .  S
C1331      C1337   1.502       .  S
C1331      C1336   1.509       .  S
C1331      C1335   1.521       .  S
C1333      H1334   1.111       .  S
C1333      C1339   1.535       .  S
C1333      C1338   1.546       .  S
C1333      C1340   1.512       .  S
C1335      C1338   1.383       .  D
C1335      C1667   1.494       .  S
C1336      C1339   1.377       .  D
C1336      C1695   1.474       .  S
C1337      C1340   1.359       .  D
C1337      C1678   1.430       .  S
C1338      C1622   1.455       .  S
C1339      C1608   1.461       .  S
C1340      C1639   1.463       .  S
C1341      C1342   1.522   1_556  S
C1341      C1347   1.495       .  S
C1341      C1969   1.546       .  S
C1341      C1863   1.511   1_556  S
C1342      C1343   1.380       .  D
C1342      H1349   1.085       .  S
C1343      C1968   1.605   1_554  S
C1343      C2138   1.548       .  S
C1344      H1350   1.109       .  S
C1344      C1967   1.607       .  S
C1344      C1348   1.604       .  S
C1344      C1346   1.512       .  S
C1345      C1965   1.548       .  S
C1345      C1346   1.360       .  D
C1345      H1351   1.082       .  S
C1346      C1594   1.459       .  S
C1347      C1972   1.336       .  D
C1347      H1352   1.094   1_556  S
C1348      C1971   1.334       .  D
C1348      C1387   1.535       .  S
C1353      C1354   1.540       .  S
C1353      C1359   1.511       .  S
C1353      C1357   1.564       .  S
C1353      C1636   1.507       .  S
C1354      C1355   1.385       .  D
C1354      H1361   1.085       .  S
C1355      C1356   1.596       .  S
C1355      C1460   1.530       .  S
C1356      H1362   1.109       .  S
C1356      C1360   1.592       .  S
C1356      C1358   1.499       .  S
C1357      C1358   1.361       .  D
C1357      H1363   1.084       .  S
C1358      C1580   1.460       .  S
C1359      C1360   1.324       .  D
C1359      H1364   1.092       .  S
C1360      C1391   1.539       .  S
C1365      C3862   1.527   1_455  S
C1365      C1371   1.501       .  S
C1365      C1369   1.547       .  S
C1365      C1748   1.530       .  S
C1366      C3861   1.524       .  S
C1366      C3863   1.388       .  D
C1366      H1373   1.086       .  S
C1367      C1368   1.624       .  S
C1367      C3862   1.389   1_455  D
C1368      H1374   1.107       .  S
C1368      C1372   1.616       .  S
C1368      C1370   1.504       .  S
C1369      C1370   1.369       .  D
C1369      H1375   1.078       .  S
C1370      C1569   1.475       .  S
C1371      C1372   1.331       .  D
C1371      H1376   1.089       .  S
C1372      C1390   1.568       .  S
O1377     Ni1383   1.936       .  S
O1377      C1398   1.270       .  A
O1378     Ni1401   1.998       .  S
O1378      C1387   1.299       .  A
O1379     Ni1383   1.932       .  S
O1379     Ni1401   1.936       .  S
O1379     Ni1395   1.932       .  S
O1379      H1402   0.966       .  S
C1380      C3997   1.545   1_456  S
C1380      O2021   1.298       .  A
C1380      O1389   1.303   1_556  A
O1381     Ni2024   1.968       .  S
O1381      C1387   1.282       .  A
O1382     Ni1400   1.881   1_554  S
O1382      C1384   1.261       .  A
Ni1383     O1386   1.906       .  S
Ni1383     O1388   1.945       .  S
C1384      C1429   1.541       .  S
C1384      O2018   1.311   1_554  A
O1385     Ni1401   1.975       .  S
O1385      C1391   1.302       .  A
O1386      C1391   1.259       .  A
O1388      C1390   1.291       .  A
O1389     Ni1400   2.006   1_554  S
C1390      O1396   1.293       .  A
H1392      O1393   0.960       .  S
O1393     Ni1401   1.941       .  S
O1393     Ni1395   1.882       .  S
O1393     Ni2024   1.828       .  S
O1394     Ni1395   2.055       .  S
O1394      C2008   1.312       .  A
Ni1395     O1399   1.961       .  S
Ni1395     O1397   1.957       .  S
O1396     Ni1401   2.032       .  S
O1397      C2004   1.299       .  A
C1398      O1399   1.297       .  A
Ni1400     O2005   1.966       .  S
Ni1400     O2017   1.833       .  S
C1403      C1404   1.527       .  S
C1403      C1409   1.497       .  S
C1403      C1407   1.546       .  S
C1403      C1625   1.500       .  S
C1404      C1405   1.364       .  D
C1404      H1411   1.086       .  S
C1405      C1406   1.597       .  S
C1405      C1532   1.539       .  S
C1406      H1412   1.106       .  S
C1406      C1410   1.608       .  S
C1406      C1408   1.517       .  S
C1407      C1408   1.374       .  D
C1407      H1413   1.082       .  S
C1408      C1821   1.476       .  S
C1409      C1410   1.338       .  D
C1409      H1414   1.092       .  S
C1410      C1449   1.536       .  S
C1415      C1416   1.559       .  S
C1415      C1421   1.494       .  S
C1415      C1419   1.598       .  S
C1416      C1417   1.386       .  D
C1416      H1423   1.085       .  S
C1417      C1418   1.517       .  S
C1417      C1555   1.482       .  S
C1418      H1424   1.097       .  S
C1418      C1422   1.517       .  S
C1418      C1420   1.504       .  S
C1419      C1420   1.415       .  D
C1419      H1425   1.083       .  S
C1420      C1453   1.543       .  S
C1421      C1422   1.326       .  D
C1421      H1426   1.090       .  S
C1422      C1804   1.413       .  S
C1427      C1428   1.515       .  S
C1427      C1433   1.522       .  S
C1427      C1431   1.571       .  S
C1427      C1765   1.532       .  S
C1428      C1429   1.386       .  D
C1428      H1435   1.086       .  S
C1429      C1430   1.636       .  S
C1430      H1436   1.110       .  S
C1430      C1434   1.618       .  S
C1430      C1432   1.489       .  S
C1431      C1432   1.367       .  D
C1431      H1437   1.084       .  S
C1432      C1793   1.451       .  S
C1433      C1434   1.333       .  D
C1433      H1438   1.090       .  S
C1434      C1452   1.589       .  S
O1439     Ni1445   1.918       .  S
O1439      C1460   1.286       .  A
O1440     Ni1463   2.009       .  S
O1440      C1449   1.308       .  A
O1441     Ni1445   1.850       .  S
O1441     Ni1463   1.885       .  S
O1441     Ni1457   1.866       .  S
O1441      H1464   0.967       .  S
C1442      C1489   1.556       .  S
C1442      O1459   1.302       .  A
C1442      O1451   1.298       .  A
O1443     Ni1462   1.964       .  S
O1443      C1449   1.283       .  A
O1444     Ni1462   1.923       .  S
O1444      C1446   1.268       .  A
Ni1445     O1448   1.949       .  S
Ni1445     O1450   1.912       .  S
C1446      O1456   1.298       .  A
O1447     Ni1463   2.019       .  S
O1447      C1453   1.331       .  A
O1448      C1453   1.291       .  A
O1450      C1452   1.278       .  A
O1451     Ni1462   1.999       .  S
C1452      O1458   1.277       .  A
H1454      O1455   0.964       .  S
O1455     Ni1463   1.945       .  S
O1455     Ni1457   1.901       .  S
O1455     Ni1462   1.867       .  S
O1456     Ni1457   1.987       .  S
Ni1457     O1461   2.035       .  S
Ni1457     O1459   1.966       .  S
O1458     Ni1463   2.015       .  S
C1460      O1461   1.320       .  A
C1465      H1466   1.106   1_565  S
C1465      C1471   1.543       .  S
C1465      C1470   1.530   1_565  S
C1465      C1469   1.543       .  S
C1467      H1468   1.114       .  S
C1467      C1473   1.509       .  S
C1467      C1472   1.497       .  S
C1467      C1474   1.496       .  S
C1469      C1472   1.378       .  D
C1469      C1653   1.472       .  S
C1470      C1473   1.372   1_545  D
C1470      C1552   1.462       .  S
C1471      C1474   1.370       .  D
C1471      C1541   1.470       .  S
C1472      C1597   1.460       .  S
C1473      C1566   1.461       .  S
C1474      C1583   1.464       .  S
C1475      C1476   1.545       .  S
C1475      C1481   1.514       .  S
C1475      C1832   1.510       .  S
C1476      C1477   1.385       .  D
C1476      H1483   1.086       .  S
C1478      H1484   1.109       .  S
C1478      C1482   1.580       .  S
C1478      C1480   1.503       .  S
C1479      C1480   1.363       .  D
C1479      H1485   1.074       .  S
C1480      C1737   1.454       .  S
C1481      H1486   1.093       .  S
C1482      C1525   1.529       .  S
C1487      C1488   1.519       .  S
C1487      C1493   1.505       .  S
C1487      C1491   1.569       .  S
C1487      C1538   1.510       .  S
C1488      C1489   1.388       .  D
C1488      H1495   1.084       .  S
C1489      C1490   1.631       .  S
C1490      H1496   1.105       .  S
C1490      C1494   1.633       .  S
C1490      C1492   1.502       .  S
C1491      C1492   1.362       .  D
C1491      H1497   1.084       .  S
C1492      C1723   1.484       .  S
C1493      C1494   1.325       .  D
C1493      H1498   1.090       .  S
C1494      C1524   1.586       .  S
C1499      C2124   1.537   1_554  S
C1499      C1505   1.492       .  S
C1499      C1503   1.530       .  S
C1499      C2235   1.511   1_554  S
C1500      C2123   1.534       .  S
C1500      C2125   1.384       .  D
C1500      H1507   1.087       .  S
C1501      C1502   1.592       .  S
C1501      C2124   1.386   1_554  D
C1501      C3876   1.549   1_554  S
C1502      H1508   1.110       .  S
C1502      C1506   1.600       .  S
C1502      C1504   1.531       .  S
C1503      C1504   1.364       .  D
C1503      H1509   1.077       .  S
C1504      C1706   1.461       .  S
C1505      C1506   1.325       .  D
C1505      H2134   1.096       .  S
C1506      C1521   1.515       .  S
H1510      C2129   1.096       .  S
O1511      C1532   1.273       .  A
O1512     Ni1535   1.974       .  S
O1512      C1521   1.293       .  A
O1513     Ni1517   1.935       .  S
O1513     Ni1535   1.927       .  S
O1513     Ni1529   1.936       .  S
O1513      H1536   0.967       .  S
C1514      C1967   1.550       .  S
C1514      O2155   1.301       .  A
C1514      O1523   1.304       .  A
O1515     Ni1534   1.971       .  S
O1515      C1521   1.283       .  A
O1516     Ni2158   1.888       .  S
O1516      C1518   1.266       .  A
Ni1517     O1520   1.909       .  S
Ni1517     O1522   1.958       .  S
C1518      O2152   1.311       .  A
O1519     Ni1535   1.955       .  S
O1519      C1525   1.296       .  A
O1520      C1525   1.261       .  A
O1522      C1524   1.298       .  A
O1523     Ni2158   2.009       .  S
C1524      O1530   1.291       .  A
H1526      O1527   0.961       .  S
O1527     Ni1535   1.935       .  S
O1527     Ni1529   1.889       .  S
O1527     Ni1534   1.836       .  S
O1528     Ni1529   2.056       .  S
O1528      C2142   1.309   1_554  A
Ni1529     O1531   1.957       .  S
O1530     Ni1535   2.028       .  S
O1531      C2138   1.300       .  A
C1532      O1533   1.296       .  A
Ni1534     O2140   1.884   1_554  S
Ni1534     O2147   2.009       .  S
C1537      C1538   1.422       .  A
C1537      C1542   1.379       .  A
C1537      H1544   1.081       .  S
C1538      C1539   1.419       .  A
C1539      C1540   1.399       .  A
C1539      N1546   1.432       .  S
C1540      C1541   1.409       .  A
C1540      H1545   1.085       .  S
C1541      C1542   1.391       .  A
C1542      N1543   1.432       .  S
N1543      H1547   1.046       .  S
N1543      H1548   1.046       .  S
N1546      H1549   1.044       .  S
N1546      H1550   1.044       .  S
C1551      C1556   1.388       .  A
C1551      H1558   1.085       .  S
C1552      C1553   1.399       .  A
C1553      N1560   1.432       .  S
C1554      C1555   1.408       .  A
C1554      H1559   1.083       .  S
C1555      C1556   1.426       .  A
C1556      N1557   1.429       .  S
N1557      H1561   1.046       .  S
N1557      H1562   1.045       .  S
N1560      H1563   1.045       .  S
N1560      H1564   1.045       .  S
C1565      C1566   1.402       .  A
C1565      C1570   1.397       .  A
C1565      H1572   1.084       .  S
C1566      C1567   1.408       .  A
C1567      C1568   1.389       .  A
C1567      N1574   1.432       .  S
C1568      C1569   1.402       .  A
C1568      H1573   1.083       .  S
C1569      C1570   1.409       .  A
C1570      N1571   1.433       .  S
N1571      H1575   1.046       .  S
N1571      H1576   1.046       .  S
N1574      H1577   1.044   1_565  S
N1574      H1578   1.044       .  S
C1579      C1580   1.402       .  A
C1579      C1584   1.385       .  A
C1579      H1586   1.082       .  S
C1580      C1581   1.410       .  A
C1581      C1582   1.390       .  A
C1581      N1588   1.438       .  S
C1582      C1583   1.403       .  A
C1582      H1587   1.082       .  S
C1583      C1584   1.394       .  A
C1584      N1585   1.428       .  S
N1585      H1589   1.045       .  S
N1585      H1590   1.045       .  S
N1588      H1591   1.044       .  S
N1588      H1592   1.045       .  S
C1593      C1594   1.401       .  A
C1593      C1598   1.392       .  A
C1593      H1600   1.083       .  S
C1594      C1595   1.414       .  A
C1595      C1596   1.386       .  A
C1595      N1602   1.438       .  S
C1596      C1597   1.399       .  A
C1596      H1601   1.083       .  S
C1597      C1598   1.400       .  A
C1598      N1599   1.435       .  S
N1599      H1603   1.044       .  S
N1599      H1604   1.045       .  S
N1602      H1605   1.044       .  S
C1607      C1608   1.385       .  A
C1607      C2236   1.384       .  A
C1607      H2238   1.083       .  S
C1608      C1609   1.400       .  A
C1609      C1610   1.393       .  A
C1609      N1616   1.433       .  S
C1610      C1611   1.419       .  A
C1610      H1615   1.083       .  S
C1611      C2123   1.506       .  S
C1611      C2236   1.436       .  A
C1612      C2231   1.387       .  A
C1612      C2235   1.438   1_554  A
C1612      N1613   1.431       .  S
N1613      H1617   1.046       .  S
N1613      H1618   1.046       .  S
H1614      C2231   1.083       .  S
N1616      H1619   1.044       .  S
N1616      H1620   1.046       .  S
C1621      C2246   1.394       .  A
C1621      C1626   1.385       .  A
C1621      H1628   1.081       .  S
C1622      C2245   1.394       .  A
C1622      C1623   1.405       .  A
C1623      C2248   1.388       .  A
C1623      N1630   1.435       .  S
C1624      C2247   1.388       .  A
C1624      C1625   1.411       .  A
C1624      H1629   1.082       .  S
C1625      C1626   1.422       .  A
C1626      N1627   1.441       .  S
N1627      H1631   1.046       .  S
N1627      H1632   1.045       .  S
N1630      H1633   1.045       .  S
N1630      H1634   1.042       .  S
C1635      C1636   1.422       .  A
C1635      C1640   1.385       .  A
C1635      H1642   1.080       .  S
C1636      C1637   1.414       .  A
C1637      C1638   1.408       .  A
C1637      N1644   1.432       .  S
C1638      C1639   1.408       .  A
C1638      H1643   1.083       .  S
C1639      C1640   1.384       .  A
C1640      N1641   1.432       .  S
N1641      H1645   1.046       .  S
N1641      H1646   1.045       .  S
N1644      H1647   1.045       .  S
N1644      H1648   1.044       .  S
C1649      C1650   1.418   1_545  A
C1649      C1654   1.388       .  A
C1650      C1651   1.413       .  A
C1651      C1652   1.401       .  A
C1651      N1658   1.432       .  S
C1652      C1653   1.406       .  A
C1652      H1657   1.084       .  S
C1653      C1654   1.399   1_565  A
C1654      N1655   1.437       .  S
N1655      H1659   1.046       .  S
N1655      H1660   1.045       .  S
N1658      H1661   1.046       .  S
N1658      H1662   1.046       .  S
C1663      C1664   1.389       .  A
C1663      C1668   1.390       .  A
C1663      H1670   1.082       .  S
C1664      C1665   1.406       .  A
C1665      C1666   1.402       .  A
C1665      N1672   1.439       .  S
C1666      C1667   1.409       .  A
C1666      H1671   1.078       .  S
C1667      C1668   1.405       .  A
C1668      N1669   1.421       .  S
N1669      H1673   1.045       .  S
N1669      H1674   1.040       .  S
N1672      H1675   1.044       .  S
N1672      H1676   1.046       .  S
C1677      C1678   1.400       .  A
C1677      C1682   1.382       .  A
C1677      H1684   1.078       .  S
C1678      C1679   1.396       .  A
C1679      C1680   1.381       .  A
C1679      N1686   1.439       .  S
C1680      C1681   1.403       .  A
C1680      H1685   1.084       .  S
C1681      C1682   1.391       .  A
C1682      N1683   1.437       .  S
N1683      H1687   1.045       .  S
N1683      H1688   1.046       .  S
N1686      H1689   1.046       .  S
N1686      H1690   1.045       .  S
C1691      C1692   1.407       .  A
C1691      C1696   1.402       .  A
C1691      H1698   1.081       .  S
C1692      C1693   1.416       .  A
C1693      C1694   1.379       .  A
C1693      N1700   1.437       .  S
C1694      C1695   1.399       .  A
C1694      H1699   1.079       .  S
C1695      C1696   1.399       .  A
C1696      N1697   1.435       .  S
N1697      H1701   1.042       .  S
N1697      H1702   1.044       .  S
N1700      H1703   1.043       .  S
N1700      H1704   1.045       .  S
C1705      C1706   1.400       .  A
C1705      C1710   1.386       .  A
C1705      H1712   1.082       .  S
C1706      C1707   1.415       .  A
C1707      C1708   1.386       .  A
C1707      N1714   1.438       .  S
C1708      C1709   1.397       .  A
C1708      H1713   1.081       .  S
C1709      C1710   1.400       .  A
C1710      N1711   1.427       .  S
N1711      H1715   1.046       .  S
N1711      H1716   1.044       .  S
N1714      H1717   1.044       .  S
N1714      H1718   1.045       .  S
C1719      C1720   1.397       .  A
C1719      C1724   1.392       .  A
C1719      H1726   1.078       .  S
C1720      C1721   1.408       .  A
C1721      C1722   1.390       .  A
C1721      N1728   1.436       .  S
C1722      C1723   1.404       .  A
C1722      H1727   1.080       .  S
C1723      C1724   1.416       .  A
C1724      N1725   1.433       .  S
N1725      H1729   1.045       .  S
N1725      H1730   1.046       .  S
N1728      H1731   1.044       .  S
N1728      H1732   1.045       .  S
C1733      C1734   1.402       .  A
C1733      C1738   1.384       .  A
C1733      H1740   1.080       .  S
C1734      C1735   1.393       .  A
C1735      C1736   1.385       .  A
C1735      N1742   1.430       .  S
C1736      C1737   1.406       .  A
C1736      H1741   1.081       .  S
C1737      C1738   1.403       .  A
C1738      N1739   1.438       .  S
N1739      H4239   1.046       .  S
N1739      H1744   1.045       .  S
N1742      H1745   1.045       .  S
N1742      H1746   1.045       .  S
H1743      N4235   1.046   1_455  S
C1747      C4244   1.414       .  A
C1747      C1752   1.400       .  A
C1747      H1754   1.084       .  S
C1748      C4243   1.414   1_455  A
C1748      C1749   1.446       .  A
C1749      C1750   1.392       .  A
C1749      N1756   1.430       .  S
C1750      C4247   1.385   1_455  A
C1750      H1755   1.085       .  S
C1751      C4246   1.385       .  A
C1751      C1752   1.406       .  A
C1752      N1753   1.432       .  S
N1753      H1757   1.044       .  S
N1753      H1758   1.045       .  S
N1756      H1759   1.043       .  S
N1756      H1760   1.043       .  S
C1761      C4258   1.406       .  A
C1761      C1766   1.404       .  A
C1761      H1768   1.085       .  S
C1762      C4257   1.407       .  A
C1762      C1763   1.397       .  A
C1763      C4260   1.400       .  A
C1763      N1770   1.431       .  S
C1764      C4259   1.401       .  A
C1764      C1765   1.419       .  A
C1764      H1769   1.078       .  S
C1765      C1766   1.418       .  A
C1766      N1767   1.433       .  S
N1767      H1771   1.045       .  S
N1767      H1772   1.045       .  S
N1770      H1773   1.045       .  S
N1770      H1774   1.045       .  S
C1775      C1776   1.408       .  A
C1775      C1780   1.401       .  A
C1775      H1782   1.084       .  S
C1776      C1777   1.400       .  A
C1777      C1778   1.390       .  A
C1777      N1784   1.432       .  S
C1778      C1779   1.405       .  A
C1778      H1783   1.082       .  S
C1779      C1780   1.398       .  A
C1780      N1781   1.426       .  S
N1781      H1785   1.044       .  S
N1781      H1786   1.046       .  S
N1784      H1787   1.045       .  S
N1784      H1788   1.045       .  S
C1789      C1790   1.404       .  A
C1789      C1794   1.400       .  A
C1789      H1796   1.081       .  S
C1790      C1791   1.418       .  A
C1791      C1792   1.382       .  A
C1791      N1798   1.429       .  S
C1792      C1793   1.385       .  A
C1792      H1797   1.082       .  S
C1793      C1794   1.414       .  A
C1794      N1795   1.431       .  S
N1795      H1799   1.044       .  S
N1795      H1800   1.046       .  S
N1798      H1801   1.046       .  S
N1798      H1802   1.045       .  S
C1803      C1804   1.385       .  A
C1803      C1808   1.370       .  A
C1803      H1810   1.086       .  S
C1804      C1805   1.397       .  A
C1805      C1806   1.388       .  A
C1805      N1812   1.432       .  S
C1806      C1807   1.402       .  A
C1806      H1811   1.084       .  S
C1807      C1808   1.400       .  A
C1808      N1809   1.424       .  S
N1809      H4309   1.045   1_455  S
N1809      H1814   1.046       .  S
N1812      H1815   1.044       .  S
N1812      H1816   1.045       .  S
H1813      N4305   1.045       .  S
C1817      C1818   1.401       .  A
C1817      C1822   1.384       .  A
C1817      H1824   1.078       .  S
C1818      C1819   1.406       .  A
C1819      C1820   1.394       .  A
C1819      N1826   1.435       .  S
C1820      C1821   1.408       .  A
C1820      H1825   1.078       .  S
C1821      C1822   1.408       .  A
C1822      N1823   1.438       .  S
N1823      H1827   1.046       .  S
N1823      H1828   1.046       .  S
N1826      H1829   1.044       .  S
N1826      H1830   1.045       .  S
C1831      C1832   1.411       .  A
C1831      C4332   1.393       .  A
C1831      H1838   1.084       .  S
C1833      C3082   1.385       .  A
C1833      N1840   1.431       .  S
C1834      C3081   1.386       .  A
C1834      C1835   1.379       .  A
C1835      C1836   1.401       .  A
C1836      C4327   1.395       .  A
C1836      N1837   1.431       .  S
N1837      H1841   1.046       .  S
N1837      H1842   1.045       .  S
N1840      H1843   1.041       .  S
N1840      H1844   1.043       .  S
C1845      C2470   1.400       .  A
C1845      C1850   1.382       .  A
C1845      H1852   1.076       .  S
C1846      C2469   1.401   1_554  A
C1846      C1847   1.414       .  A
C1847      C2472   1.378   1_554  A
C1847      N1854   1.423       .  S
C1848      C2471   1.379       .  A
C1848      C1849   1.387       .  A
C1848      H2477   1.084       .  S
C1849      C1850   1.409       .  A
C1850      N1851   1.440   1_455  S
N1851      H1855   1.046       .  S
N1851      H1856   1.046       .  S
H1853      C2472   1.084       .  S
N1854      H1857   1.042       .  S
N1854      H1858   1.044   1_455  S
C1859      C1864   1.394       .  A
C1859      H1866   1.085       .  S
C1860      C1861   1.405   1_554  A
C1861      N2492   1.425       .  S
C1862      C2487   1.415       .  A
C1862      H1867   1.076       .  S
C1863      C2486   1.414   1_554  A
C1863      C1864   1.424       .  A
C1864      N1865   1.433       .  S
N1865      H1869   1.044       .  S
N1865      H1870   1.044       .  S
N1868      C2485   1.427       .  S
N1868      H1871   1.041       .  S
N1868      H1872   1.045       .  S
C1873      H1874   1.105       .  S
C1873      C1879   1.541       .  S
C1873      C1878   1.500       .  S
C1873      C1877   1.550       .  S
C1875      H1876   1.097       .  S
C1875      C1881   1.511       .  S
C1875      C1880   1.522       .  S
C1875      C1882   1.490       .  S
C1877      C1880   1.392       .  D
C1877      C2470   1.469       .  S
C1878      C1881   1.357       .  D
C1878      C2459   1.454   1_455  S
C1879      C1882   1.371       .  D
C1879      C2484   1.471       .  S
C1880      C2414   1.505       .  S
C1881      C2431   1.441       .  S
C1882      C2442   1.472       .  S
C1883      H1884   1.110       .  S
C1883      C1889   1.539       .  S
C1883      C1888   1.542       .  S
C1883      C1887   1.561       .  S
C1885      H1886   1.113       .  S
C1885      C1891   1.504       .  S
C1885      C1890   1.488       .  S
C1885      C1892   1.505       .  S
C1887      C1890   1.372       .  D
C1887      C2386   1.479       .  S
C1888      C1891   1.376       .  D
C1888      C2400   1.466       .  S
C1889      C1892   1.371       .  D
C1889      C2375   1.474       .  S
C1890      C2333   1.467       .  S
C1891      C2344   1.465       .  S
C1892      C2358   1.457       .  S
C1893      C1894   1.517       .  S
C1893      C1899   1.505       .  S
C1893      C4393   1.535   1_455  S
C1893      C2473   1.474       .  S
C1894      C1895   1.358       .  D
C1894      H1901   1.086       .  S
C1895      C4392   1.616   1_455  S
C1895      C2022   1.532       .  S
C1896      H1902   1.108       .  S
C1896      C4391   1.612       .  S
C1896      C1900   1.617       .  S
C1896      C1898   1.513       .  S
C1897      C4389   1.532       .  S
C1897      C1898   1.365       .  D
C1897      H1903   1.085       .  S
C1898      C2316   1.478       .  S
C1899      C4396   1.337   1_455  D
C1899      H1904   1.086       .  S
C1900      C4395   1.336       .  D
C1900      C1939   1.551       .  S
C1905      C1906   1.541       .  S
C1905      C1911   1.505       .  S
C1905      C1909   1.598       .  S
C1905      C2070   1.559       .  S
C1906      C1907   1.364       .  D
C1906      H1913   1.087       .  S
C1907      C1908   1.514       .  S
C1907      C2403   1.473       .  S
C1908      H1914   1.112       .  S
C1908      C1912   1.536       .  S
C1908      C1910   1.506       .  S
C1909      C1910   1.419       .  D
C1909      H1915   1.084       .  S
C1910      C1943   1.525       .  S
C1911      C1912   1.337       .  D
C1911      H1916   1.088       .  S
C1912      C2305   1.428       .  S
C1917      C1923   1.518       .  S
C1917      C1921   1.561       .  S
C1918      C1919   1.389   1_565  D
C1918      H1925   1.087       .  S
C1919      C2142   1.555   1_545  S
C1920      H1926   1.110       .  S
C1920      C1924   1.635       .  S
C1920      C1922   1.510       .  S
C1921      C1922   1.354       .  D
C1921      H1927   1.086       .  S
C1922      C2288   1.464       .  S
C1923      C1924   1.331       .  D
C1924      C1942   1.598       .  S
O1929     Ni1935   1.922       .  S
O1929      C1950   1.283       .  A
O1930     Ni1953   2.013       .  S
O1930      C1939   1.309       .  A
O1931     Ni1935   1.857       .  S
O1931     Ni1953   1.881       .  S
O1931     Ni1947   1.871       .  S
O1931      H1954   0.967       .  S
C1932      O3197   1.299   1_455  A
C1932      O1941   1.301       .  A
O1933     Ni4448   1.976       .  S
O1933      C1939   1.289       .  A
O1934     Ni1952   1.907       .  S
O1934      C1936   1.265       .  A
Ni1935     O1938   1.922       .  S
Ni1935     O1940   1.936       .  S
C1936      C2039   1.563       .  S
C1936      O4442   1.304   1_455  A
O1937     Ni1953   2.030       .  S
O1937      C1943   1.335       .  A
O1938      C1943   1.284       .  A
O1940      C1942   1.284       .  A
O1941     Ni1952   2.011       .  S
C1942      O1948   1.276       .  A
H1944      O1945   0.965       .  S
O1945     Ni1953   1.957       .  S
O1945     Ni1947   1.898       .  S
O1945     Ni4448   1.856       .  S
O1946     Ni1947   2.011       .  S
O1946      C4432   1.306       .  A
Ni1947     O1951   2.027       .  S
O1948     Ni1953   2.014       .  S
O1949      C3180   1.300       .  A
C1950      C2101   1.528       .  S
C1950      O1951   1.318       .  A
Ni1952     O4429   1.975       .  S
Ni1952     O4441   1.856   1_455  S
C1955      H1956   1.110       .  S
C1955      C1961   1.500       .  S
C1955      C1960   1.507       .  S
C1955      C1959   1.522       .  S
C1957      H1958   1.111       .  S
C1957      C1963   1.535       .  S
C1957      C1962   1.546       .  S
C1957      C1964   1.513       .  S
C1959      C1962   1.385       .  D
C1959      C2291   1.501       .  S
C1960      C1963   1.376       .  D
C1960      C2319   1.471       .  S
C1961      C1964   1.360       .  D
C1961      C2302   1.429       .  S
C1962      C2246   1.453   1_556  S
C1963      C2232   1.462       .  S
C1964      C2263   1.463       .  S
C1965      C1966   1.524       .  S
C1965      C1971   1.494       .  S
C1965      C2487   1.513       .  S
C1966      C1967   1.382       .  D
C1966      H1973   1.085       .  S
C1968      H1974   1.108       .  S
C1968      C1972   1.602       .  S
C1968      C1970   1.513       .  S
C1969      C1970   1.360       .  D
C1969      H1975   1.082       .  S
C1970      C2218   1.456       .  S
C1971      H1976   1.094       .  S
C1972      C2011   1.532       .  S
C1977      C1978   1.540       .  S
C1977      C1983   1.511       .  S
C1977      C1981   1.564       .  S
C1977      C2260   1.510       .  S
C1978      C1979   1.387       .  D
C1978      H1985   1.086       .  S
C1979      C1980   1.601       .  S
C1979      C2084   1.534       .  S
C1980      H1986   1.109       .  S
C1980      C1984   1.595       .  S
C1980      C1982   1.499       .  S
C1981      C1982   1.360       .  D
C1981      H1987   1.084       .  S
C1982      C2204   1.461       .  S
C1983      C1984   1.322       .  D
C1983      H1988   1.093       .  S
C1984      C2015   1.541       .  S
C1989      C4486   1.524   1_455  S
C1989      C1995   1.499       .  S
C1989      C1993   1.550       .  S
C1989      C2372   1.530       .  S
C1990      C4485   1.525       .  S
C1990      C4487   1.387       .  D
C1990      H1997   1.086       .  S
C1991      C1992   1.627       .  S
C1991      C4486   1.388   1_455  D
C1992      H1998   1.106       .  S
C1992      C1996   1.621       .  S
C1992      C1994   1.506       .  S
C1993      C1994   1.371       .  D
C1993      H1999   1.078       .  S
C1994      C2193   1.482       .  S
C1995      C1996   1.329       .  D
C1995      H2000   1.089       .  S
C1996      C2014   1.570       .  S
O2001     Ni2007   1.936       .  S
O2001      C2022   1.270       .  A
O2002     Ni2025   1.995       .  S
O2002      C2011   1.299       .  A
O2003     Ni2007   1.932       .  S
O2003     Ni2025   1.934       .  S
O2003     Ni2019   1.932       .  S
O2003      H2026   0.966       .  S
C2004      C4621   1.548   1_455  S
C2004      O2013   1.304       .  A
O2005      C2011   1.283       .  A
O2006     Ni2024   1.876       .  S
O2006      C2008   1.260       .  A
Ni2007     O2010   1.909       .  S
Ni2007     O2012   1.950       .  S
C2008      C2053   1.544       .  S
O2009     Ni2025   1.977       .  S
O2009      C2015   1.303       .  A
O2010      C2015   1.260       .  A
O2012      C2014   1.292       .  A
O2013     Ni2024   2.008       .  S
C2014      O2020   1.291       .  A
H2016      O2017   0.961       .  S
O2017     Ni2025   1.942       .  S
O2017     Ni2019   1.885       .  S
O2018     Ni2019   2.051       .  S
Ni2019     O2023   1.961       .  S
Ni2019     O2021   1.953       .  S
O2020     Ni2025   2.030       .  S
C2022      O2023   1.297       .  A
C2027      C2028   1.527       .  S
C2027      C2033   1.498       .  S
C2027      C2031   1.545       .  S
C2027      C2249   1.500       .  S
C2028      C2029   1.365       .  D
C2028      H2035   1.087       .  S
C2029      C2030   1.596       .  S
C2029      C2156   1.539       .  S
C2030      H2036   1.106       .  S
C2030      C2034   1.608       .  S
C2030      C2032   1.519       .  S
C2031      C2032   1.373       .  D
C2031      H2037   1.082       .  S
C2032      C2445   1.475       .  S
C2033      C2034   1.338       .  D
C2033      H2038   1.092       .  S
C2034      C2073   1.539       .  S
C2039      C2040   1.558       .  S
C2039      C2045   1.493       .  S
C2039      C2043   1.598       .  S
C2040      C2041   1.386       .  D
C2040      H2047   1.085       .  S
C2041      C2042   1.521       .  S
C2041      C2179   1.487       .  S
C2042      H2048   1.097       .  S
C2042      C2046   1.521       .  S
C2042      C2044   1.503       .  S
C2043      C2044   1.415       .  D
C2043      H2049   1.084       .  S
C2044      C2077   1.542       .  S
C2045      C2046   1.325       .  D
C2045      H2050   1.090       .  S
C2046      C2428   1.417       .  S
C2051      C2052   1.513       .  S
C2051      C2057   1.528       .  S
C2051      C2055   1.575       .  S
C2051      C2389   1.530       .  S
C2052      C2053   1.386       .  D
C2052      H2059   1.086       .  S
C2053      C2054   1.636       .  S
C2054      H2060   1.110       .  S
C2054      C2058   1.624       .  S
C2054      C2056   1.487       .  S
C2055      C2056   1.367       .  D
C2055      H2061   1.084       .  S
C2056      C2417   1.450       .  S
C2057      C2058   1.332       .  D
C2057      H2062   1.091       .  S
C2058      C2076   1.591       .  S
O2063     Ni2069   1.933       .  S
O2063      C2084   1.285       .  A
O2064     Ni2087   2.011       .  S
O2064      C2073   1.308       .  A
O2065     Ni2069   1.862       .  S
O2065     Ni2087   1.880       .  S
O2065     Ni2081   1.875       .  S
O2065      H2088   0.967       .  S
C2066      C2113   1.553       .  S
C2066      O2083   1.298       .  A
C2066      O2075   1.298       .  A
O2067     Ni2086   1.966       .  S
O2067      C2073   1.285       .  A
O2068     Ni2086   1.922       .  S
O2068      C2070   1.268       .  A
Ni2069     O2072   1.934       .  S
Ni2069     O2074   1.927       .  S
C2070      O2080   1.299       .  A
O2071     Ni2087   2.034       .  S
O2071      C2077   1.335       .  A
O2072      C2077   1.288       .  A
O2074      C2076   1.282       .  A
O2075     Ni2086   2.002       .  S
C2076      O2082   1.274       .  A
H2078      O2079   0.964       .  S
O2079     Ni2087   1.949       .  S
O2079     Ni2081   1.898       .  S
O2079     Ni2086   1.867       .  S
O2080     Ni2081   1.986       .  S
Ni2081     O2085   2.025       .  S
Ni2081     O2083   1.960       .  S
O2082     Ni2087   2.007       .  S
C2084      O2085   1.316       .  A
C2089      H2090   1.105   1_565  S
C2089      C2095   1.544       .  S
C2089      C2094   1.533   1_565  S
C2089      C2093   1.546       .  S
C2091      H2092   1.114       .  S
C2091      C2097   1.510       .  S
C2091      C2096   1.496       .  S
C2091      C2098   1.497       .  S
C2093      C2096   1.377       .  D
C2093      C2277   1.475       .  S
C2094      C2097   1.372   1_545  D
C2094      C2176   1.463       .  S
C2095      C2098   1.372       .  D
C2095      C2165   1.475       .  S
C2096      C2221   1.458       .  S
C2097      C2190   1.465   1_565  S
C2098      C2207   1.466       .  S
C2099      C2100   1.542       .  S
C2099      C2105   1.513       .  S
C2099      C2456   1.509       .  S
C2100      C2101   1.382       .  D
C2100      H2107   1.086       .  S
C2102      H2108   1.109       .  S
C2102      C2106   1.578       .  S
C2102      C2104   1.503       .  S
C2103      C2104   1.361       .  D
C2103      H2109   1.075       .  S
C2104      C2361   1.453       .  S
C2105      H2110   1.093       .  S
C2106      C2149   1.527       .  S
C2111      C2112   1.521       .  S
C2111      C2117   1.505       .  S
C2111      C2115   1.572       .  S
C2111      C2162   1.514       .  S
C2112      C2113   1.390       .  D
C2112      H2119   1.084       .  S
C2113      C2114   1.627       .  S
C2114      H2120   1.105       .  S
C2114      C2118   1.631       .  S
C2114      C2116   1.505       .  S
C2115      C2116   1.364       .  D
C2115      H2121   1.083       .  S
C2116      C2347   1.492       .  S
C2117      C2118   1.323       .  D
C2117      H2122   1.091       .  S
C2118      C2148   1.581       .  S
C2123      C2129   1.493       .  S
C2123      C2127   1.530       .  S
C2124      H2131   1.087       .  S
C2125      C2126   1.594       .  S
C2125      C4500   1.547       .  S
C2126      H2132   1.110       .  S
C2126      C2130   1.601       .  S
C2126      C2128   1.533       .  S
C2127      C2128   1.363       .  D
C2127      H2133   1.078       .  S
C2128      C2330   1.462       .  S
C2129      C2130   1.324       .  D
C2130      C2145   1.518       .  S
O2135      C2156   1.274       .  A
O2136     Ni2159   1.974       .  S
O2136      C2145   1.292       .  A
O2137     Ni2141   1.937       .  S
O2137     Ni2159   1.934       .  S
O2137     Ni2153   1.935       .  S
O2137      H2160   0.966       .  S
C2138      O2147   1.304       .  A
O2139     Ni2158   1.972       .  S
O2139      C2145   1.284       .  A
O2140      C2142   1.265       .  A
Ni2141     O2144   1.905       .  S
Ni2141     O2146   1.957       .  S
O2143     Ni2159   1.952       .  S
O2143      C2149   1.294       .  A
O2144      C2149   1.259       .  A
O2146      C2148   1.300       .  A
C2148      O2154   1.290       .  A
H2150      O2151   0.961       .  S
O2151     Ni2159   1.933       .  S
O2151     Ni2153   1.890       .  S
O2151     Ni2158   1.835       .  S
O2152     Ni2153   2.060       .  S
Ni2153     O2155   1.959       .  S
O2154     Ni2159   2.023       .  S
C2156      O2157   1.296       .  A
C2161      C2162   1.422       .  A
C2161      C2166   1.382       .  A
C2161      H2168   1.081       .  S
C2162      C2163   1.419       .  A
C2163      C2164   1.400       .  A
C2163      N2170   1.431       .  S
C2164      C2165   1.409       .  A
C2164      H2169   1.085       .  S
C2165      C2166   1.393       .  A
C2166      N2167   1.432       .  S
N2167      H2171   1.046       .  S
N2167      H2172   1.046       .  S
N2170      H2173   1.044       .  S
N2170      H2174   1.044       .  S
C2175      C2180   1.390       .  A
C2175      H2182   1.085       .  S
C2176      C2177   1.399       .  A
C2177      N2184   1.431       .  S
C2178      C2179   1.409       .  A
C2178      H2183   1.083       .  S
C2179      C2180   1.426       .  A
C2180      N2181   1.429       .  S
N2181      H2185   1.046       .  S
N2181      H2186   1.045       .  S
N2184      H2187   1.045       .  S
N2184      H2188   1.046       .  S
C2189      C2190   1.403   1_565  A
C2189      C2194   1.401       .  A
C2189      H2196   1.084       .  S
C2190      C2191   1.407   1_545  A
C2191      C2192   1.390       .  A
C2191      N2198   1.431       .  S
C2192      C2193   1.402       .  A
C2192      H2197   1.082       .  S
C2193      C2194   1.411       .  A
C2194      N2195   1.432       .  S
N2195      H2199   1.046       .  S
N2195      H2200   1.046       .  S
N2198      H2201   1.044   1_565  S
N2198      H2202   1.044       .  S
C2203      C2204   1.402       .  A
C2203      C2208   1.386       .  A
C2203      H2210   1.082       .  S
C2204      C2205   1.411       .  A
C2205      C2206   1.389       .  A
C2205      N2212   1.437       .  S
C2206      C2207   1.403       .  A
C2206      H2211   1.082       .  S
C2207      C2208   1.395       .  A
C2208      N2209   1.427       .  S
N2209      H2213   1.044       .  S
N2209      H2214   1.044       .  S
N2212      H2215   1.044       .  S
N2212      H2216   1.045       .  S
C2217      C2218   1.401       .  A
C2217      C2222   1.392       .  A
C2217      H2224   1.083       .  S
C2218      C2219   1.413       .  A
C2219      C2220   1.383       .  A
C2219      N2226   1.438       .  S
C2220      C2221   1.397       .  A
C2220      H2225   1.083       .  S
C2221      C2222   1.401       .  A
C2222      N2223   1.434       .  S
N2223      H2227   1.044       .  S
N2223      H2228   1.045       .  S
N2226      H2229   1.044       .  S
C2231      C2232   1.386   1_554  A
C2232      C2233   1.401       .  A
C2233      C2234   1.393       .  A
C2233      N2240   1.434       .  S
C2234      C2235   1.418       .  A
C2234      H2239   1.084       .  S
C2236      N2237   1.432       .  S
N2237      H2241   1.046       .  S
N2237      H2242   1.046       .  S
N2240      H2243   1.044       .  S
N2240      H2244   1.046       .  S
C2245      C2250   1.384       .  A
C2245      H2252   1.080       .  S
C2246      C2247   1.403       .  A
C2247      N2254   1.434       .  S
C2248      C2249   1.412       .  A
C2248      H2253   1.082       .  S
C2249      C2250   1.422       .  A
C2250      N2251   1.441       .  S
N2251      H2255   1.046       .  S
N2251      H2256   1.045       .  S
N2254      H2257   1.045       .  S
N2254      H2258   1.043   1_554  S
C2259      C2260   1.423       .  A
C2259      C2264   1.386       .  A
C2259      H2266   1.079       .  S
C2260      C2261   1.415       .  A
C2261      C2262   1.409       .  A
C2261      N2268   1.432       .  S
C2262      C2263   1.408       .  A
C2262      H2267   1.083       .  S
C2263      C2264   1.384       .  A
C2264      N2265   1.431       .  S
N2265      H2269   1.046       .  S
N2265      H2270   1.045       .  S
N2268      H2271   1.045       .  S
N2268      H2272   1.044       .  S
C2273      C2274   1.417   1_545  A
C2273      C2278   1.388       .  A
C2274      C2275   1.413       .  A
C2275      C2276   1.402       .  A
C2275      N2282   1.432       .  S
C2276      C2277   1.408       .  A
C2276      H2281   1.084       .  S
C2277      C2278   1.400   1_565  A
C2278      N2279   1.437       .  S
N2279      H2283   1.046       .  S
N2279      H2284   1.045       .  S
N2282      H2285   1.046       .  S
N2282      H2286   1.045       .  S
C2287      C2288   1.389       .  A
C2287      C2292   1.393       .  A
C2287      H2294   1.081       .  S
C2288      C2289   1.404       .  A
C2289      C2290   1.404       .  A
C2289      N2296   1.438       .  S
C2290      C2291   1.411       .  A
C2290      H2295   1.077       .  S
C2291      C2292   1.409       .  A
C2292      N2293   1.423       .  S
N2293      H2297   1.046       .  S
N2293      H2298   1.041       .  S
N2296      H2299   1.045       .  S
N2296      H2300   1.046       .  S
C2301      C2302   1.401       .  A
C2301      C2306   1.382       .  A
C2301      H2308   1.080       .  S
C2302      C2303   1.397       .  A
C2303      C2304   1.380       .  A
C2303      N2310   1.439       .  S
C2304      C2305   1.403       .  A
C2304      H2309   1.084       .  S
C2305      C2306   1.391       .  A
C2306      N2307   1.438       .  S
N2307      H2311   1.045       .  S
N2307      H2312   1.046       .  S
N2310      H2313   1.046       .  S
N2310      H2314   1.045       .  S
C2315      C2316   1.406       .  A
C2315      C2320   1.402       .  A
C2315      H2322   1.081       .  S
C2316      C2317   1.417       .  A
C2317      C2318   1.377       .  A
C2317      N2324   1.437       .  S
C2318      C2319   1.398       .  A
C2318      H2323   1.079       .  S
C2319      C2320   1.400       .  A
C2320      N2321   1.434       .  S
N2321      H2325   1.042       .  S
N2321      H2326   1.044       .  S
N2324      H2327   1.043       .  S
N2324      H2328   1.045       .  S
C2329      C2330   1.400       .  A
C2329      C2334   1.385       .  A
C2329      H2336   1.082       .  S
C2330      C2331   1.417       .  A
C2331      C2332   1.388       .  A
C2331      N2338   1.438       .  S
C2332      C2333   1.398       .  A
C2332      H2337   1.082       .  S
C2333      C2334   1.401       .  A
C2334      N2335   1.428       .  S
N2335      H2339   1.046       .  S
N2335      H2340   1.045       .  S
N2338      H2341   1.044       .  S
N2338      H2342   1.045       .  S
C2343      C2344   1.397       .  A
C2343      C2348   1.393       .  A
C2343      H2350   1.077       .  S
C2344      C2345   1.408       .  A
C2345      C2346   1.394       .  A
C2345      N2352   1.437       .  S
C2346      C2347   1.406       .  A
C2346      H2351   1.079       .  S
C2347      C2348   1.417       .  A
C2348      N2349   1.433       .  S
N2349      H2353   1.046       .  S
N2349      H2354   1.046       .  S
N2352      H2355   1.044       .  S
N2352      H2356   1.044       .  S
C2357      C2358   1.402       .  A
C2357      C2362   1.385       .  A
C2357      H2364   1.080       .  S
C2358      C2359   1.393       .  A
C2359      C2360   1.383       .  A
C2359      N2366   1.429       .  S
C2360      C2361   1.404       .  A
C2360      H2365   1.081       .  S
C2361      C2362   1.403       .  A
C2362      N2363   1.438       .  S
N2363      H4863   1.046       .  S
N2363      H2368   1.046       .  S
N2366      H2369   1.045       .  S
N2366      H2370   1.045       .  S
H2367      N4859   1.046   1_455  S
C2371      C4868   1.413       .  A
C2371      C2376   1.399       .  A
C2371      H2378   1.084       .  S
C2372      C4867   1.414   1_455  A
C2372      C2373   1.444       .  A
C2373      C2374   1.391       .  A
C2373      N2380   1.429       .  S
C2374      C4871   1.386   1_455  A
C2374      H2379   1.085       .  S
C2375      C4870   1.385       .  A
C2375      C2376   1.405       .  A
C2376      N2377   1.432       .  S
N2377      H2381   1.044       .  S
N2377      H2382   1.045       .  S
N2380      H2383   1.042       .  S
N2380      H2384   1.042       .  S
C2385      C4882   1.406       .  A
C2385      C2390   1.403       .  A
C2385      H2392   1.085       .  S
C2386      C4881   1.406       .  A
C2386      C2387   1.395       .  A
C2387      C4884   1.402       .  A
C2387      N2394   1.430       .  S
C2388      C4883   1.400       .  A
C2388      C2389   1.419       .  A
C2388      H2393   1.078       .  S
C2389      C2390   1.417       .  A
C2390      N2391   1.432       .  S
N2391      H2395   1.046       .  S
N2391      H2396   1.046       .  S
N2394      H2397   1.045       .  S
N2394      H2398   1.043       .  S
C2399      C2400   1.408       .  A
C2399      C2404   1.401       .  A
C2399      H2406   1.084       .  S
C2400      C2401   1.399       .  A
C2401      C2402   1.392       .  A
C2401      N2408   1.432       .  S
C2402      C2403   1.406       .  A
C2402      H2407   1.082       .  S
C2403      C2404   1.397       .  A
C2404      N2405   1.426       .  S
N2405      H2409   1.044       .  S
N2405      H2410   1.046       .  S
N2408      H2411   1.045       .  S
N2408      H2412   1.045       .  S
C2413      C2414   1.404       .  A
C2413      C2418   1.400       .  A
C2413      H2420   1.081       .  S
C2414      C2415   1.417       .  A
C2415      C2416   1.382       .  A
C2415      N2422   1.428       .  S
C2416      C2417   1.384       .  A
C2416      H2421   1.082       .  S
C2417      C2418   1.414       .  A
C2418      N2419   1.431       .  S
N2419      H2423   1.044       .  S
N2419      H2424   1.046       .  S
N2422      H2425   1.047       .  S
N2422      H2426   1.046       .  S
C2427      C2428   1.386       .  A
C2427      C2432   1.372       .  A
C2427      H2434   1.086       .  S
C2428      C2429   1.396       .  A
C2429      C2430   1.390       .  A
C2429      N2436   1.433       .  S
C2430      C2431   1.402       .  A
C2430      H2435   1.084       .  S
C2431      C2432   1.400       .  A
C2432      N2433   1.423       .  S
N2433      H4933   1.045   1_455  S
N2433      H2438   1.046       .  S
N2436      H2439   1.044       .  S
N2436      H2440   1.045       .  S
H2437      N4929   1.046       .  S
C2441      C2442   1.401       .  A
C2441      C2446   1.386       .  A
C2441      H2448   1.080       .  S
C2442      C2443   1.405       .  A
C2443      C2444   1.391       .  A
C2443      N2450   1.434       .  S
C2444      C2445   1.407       .  A
C2444      H2449   1.078       .  S
C2445      C2446   1.410       .  A
C2446      N2447   1.438       .  S
N2447      H2451   1.046       .  S
N2447      H2452   1.046       .  S
N2450      H2453   1.044       .  S
N2450      H2454   1.045       .  S
C2455      C2456   1.412       .  A
C2455      C4956   1.395       .  A
C2455      H2462   1.084       .  S
C2457      C3706   1.385       .  A
C2457      N2464   1.432       .  S
C2458      C3705   1.385       .  A
C2458      C2459   1.378       .  A
C2459      C2460   1.399       .  A
C2460      C4951   1.393       .  A
C2460      N2461   1.431       .  S
N2461      H2465   1.046       .  S
N2461      H2466   1.045       .  S
N2464      H2467   1.040       .  S
N2464      H2468   1.043       .  S
C2469      C2474   1.380       .  A
C2469      H2476   1.074       .  S
C2470      C2471   1.417       .  A
C2471      N2478   1.424       .  S
C2472      C2473   1.387       .  A
C2473      C2474   1.408       .  A
C2474      N2475   1.440   1_455  S
N2475      H2479   1.046       .  S
N2475      H2480   1.046       .  S
N2478      H2481   1.042       .  S
N2478      H2482   1.044   1_455  S
C2483      C2488   1.395       .  A
C2483      H2490   1.085       .  S
C2484      C2485   1.403       .  A
C2486      H2491   1.076       .  S
C2487      C2488   1.425       .  A
C2488      N2489   1.433       .  S
N2489      H2493   1.044       .  S
N2489      H2494   1.043       .  S
N2492      H2495   1.040       .  S
N2492      H2496   1.044       .  S
C2497      H2498   1.104       .  S
C2497      C2503   1.541       .  S
C2497      C2502   1.501       .  S
C2497      C2501   1.551       .  S
C2499      H2500   1.095       .  S
C2499      C2505   1.510       .  S
C2499      C2504   1.521       .  S
C2499      C2506   1.490       .  S
C2501      C2504   1.392       .  D
C2501      C3094   1.467       .  S
C2502      C2505   1.355       .  D
C2502      C3083   1.458       .  S
C2503      C2506   1.371       .  D
C2503      C3108   1.475   1_545  S
C2504      C3038   1.505       .  S
C2505      C3055   1.437       .  S
C2506      C3066   1.474       .  S
C2507      H2508   1.110       .  S
C2507      C2513   1.542       .  S
C2507      C2512   1.541       .  S
C2507      C2511   1.562       .  S
C2509      H2510   1.113       .  S
C2509      C2515   1.506       .  S
C2509      C2514   1.488       .  S
C2509      C2516   1.505       .  S
C2511      C2514   1.372       .  D
C2511      C3010   1.476   1_655  S
C2512      C2515   1.374       .  D
C2512      C3024   1.467       .  S
C2513      C2516   1.371       .  D
C2513      C2999   1.479       .  S
C2514      C2957   1.471       .  S
C2515      C2968   1.463       .  S
C2516      C2982   1.456       .  S
C2517      C2518   1.521       .  S
C2517      C2523   1.506       .  S
C2517      C3097   1.478       .  S
C2518      C2519   1.359       .  D
C2518      H2525   1.086       .  S
C2519      C2646   1.530       .  S
C2520      H2526   1.107       .  S
C2520      C2524   1.620       .  S
C2520      C2522   1.512       .  S
C2521      C2522   1.367       .  D
C2521      H2527   1.084       .  S
C2522      C2940   1.482       .  S
C2523      H2528   1.086       .  S
C2524      C2563   1.554       .  S
C2529      C2530   1.542       .  S
C2529      C2535   1.503       .  S
C2529      C2533   1.599       .  S
C2529      C2694   1.560       .  S
C2530      C2531   1.365       .  D
C2530      H2537   1.086       .  S
C2531      C2532   1.513       .  S
C2531      C3027   1.474       .  S
C2532      H2538   1.112       .  S
C2532      C2536   1.535       .  S
C2532      C2534   1.505       .  S
C2533      C2534   1.419       .  D
C2533      H2539   1.084       .  S
C2534      C2567   1.524       .  S
C2535      C2536   1.337       .  D
C2535      H2540   1.088       .  S
C2536      C2929   1.425       .  S
C2541      C3790   1.503   1_545  S
C2541      C2547   1.516       .  S
C2541      C2545   1.561       .  S
C2541      C4146   1.513   1_545  S
C2542      C3789   1.503       .  S
C2542      C2543   1.389       .  D
C2542      H2549   1.087       .  S
C2543      C3792   1.659       .  S
C2543      C2766   1.562       .  S
C2544      H2550   1.110       .  S
C2544      C3791   1.654       .  S
C2544      C2548   1.634       .  S
C2544      C2546   1.512       .  S
C2545      C2546   1.356       .  D
C2545      H2551   1.085       .  S
C2546      C2912   1.465       .  S
C2547      C2548   1.331       .  D
C2547      H3800   1.091   1_545  S
C2548      C2566   1.597       .  S
H2552      C3795   1.091       .  S
O2553     Ni2559   1.923       .  S
O2553      C2574   1.284       .  A
O2554     Ni2577   2.012       .  S
O2554      C2563   1.308       .  A
O2555     Ni2559   1.853       .  S
O2555     Ni2577   1.880       .  S
O2555     Ni2571   1.868       .  S
O2555      H2578   0.967       .  S
C2556      C3863   1.560   1_545  S
C2556      O2565   1.301       .  A
O2557      C2563   1.291       .  A
O2558     Ni2576   1.909       .  S
O2558      C2560   1.265       .  A
Ni2559     O2562   1.925       .  S
Ni2559     O2564   1.933       .  S
C2560      C2663   1.566       .  S
O2561     Ni2577   2.026       .  S
O2561      C2567   1.334       .  A
O2562      C2567   1.285       .  A
O2564      C2566   1.283       .  A
O2565     Ni2576   2.010       .  S
C2566      O2572   1.276       .  A
H2568      O2569   0.965       .  S
O2569     Ni2577   1.956       .  S
O2569     Ni2571   1.898       .  S
O2570     Ni2571   2.006       .  S
Ni2571     O2575   2.021       .  S
Ni2571     O3821   1.963       .  S
O2572     Ni2577   2.016       .  S
O2573     Ni3819   1.964       .  S
C2574      C2725   1.525       .  S
C2574      O2575   1.316       .  A
C2579      H2580   1.112       .  S
C2579      C2585   1.502       .  S
C2579      C2584   1.508       .  S
C2579      C2583   1.521       .  S
C2581      H2582   1.112       .  S
C2581      C2587   1.532       .  S
C2581      C2586   1.544       .  S
C2581      C2588   1.510       .  S
C2583      C2586   1.383       .  D
C2583      C2915   1.500       .  S
C2584      C2587   1.377       .  D
C2584      C2943   1.473       .  S
C2585      C2588   1.358       .  D
C2585      C2926   1.425       .  S
C2586      C2870   1.447       .  S
C2587      C2856   1.457       .  S
C2588      C2887   1.464       .  S
C2589      C2590   1.520   1_556  S
C2589      C2595   1.492       .  S
C2589      C3217   1.546       .  S
C2589      C3111   1.509   1_556  S
C2590      C2591   1.378       .  D
C2590      H2597   1.085       .  S
C2591      C3216   1.605   1_554  S
C2591      C3386   1.549       .  S
C2592      H2598   1.109       .  S
C2592      C3215   1.609       .  S
C2592      C2596   1.606       .  S
C2592      C2594   1.512       .  S
C2593      C3213   1.547       .  S
C2593      C2594   1.359       .  D
C2593      H2599   1.081       .  S
C2594      C2842   1.454       .  S
C2595      C3220   1.334       .  D
C2595      H2600   1.095   1_556  S
C2596      C3219   1.334       .  D
C2596      C2635   1.538       .  S
C2601      C2602   1.539       .  S
C2601      C2607   1.511       .  S
C2601      C2605   1.565       .  S
C2601      C2884   1.509       .  S
C2602      C2603   1.387       .  D
C2602      H2609   1.086       .  S
C2603      C2604   1.600       .  S
C2603      C2708   1.534       .  S
C2604      H2610   1.109       .  S
C2604      C2608   1.595       .  S
C2604      C2606   1.499       .  S
C2605      C2606   1.360       .  D
C2605      H2611   1.084       .  S
C2606      C2828   1.462       .  S
C2607      C2608   1.321       .  D
C2607      H2612   1.093       .  S
C2608      C2639   1.541       .  S
C2613      C2619   1.498       .  S
C2613      C2617   1.551       .  S
C2613      C2996   1.528       .  S
C2614      H2621   1.086       .  S
C2615      C2616   1.624       .  S
C2615      C3804   1.561       .  S
C2616      H2622   1.105       .  S
C2616      C2620   1.621       .  S
C2616      C2618   1.508       .  S
C2617      C2618   1.371       .  D
C2617      H2623   1.079       .  S
C2618      C2817   1.483       .  S
C2619      C2620   1.330       .  D
C2619      H2624   1.090       .  S
C2620      C2638   1.570       .  S
O2625     Ni2631   1.938       .  S
O2625      C2646   1.271       .  A
O2626     Ni2649   1.999       .  S
O2626      C2635   1.300       .  A
O2627     Ni2631   1.931       .  S
O2627     Ni2649   1.934       .  S
O2627     Ni2643   1.931       .  S
O2627      H2650   0.966       .  S
C2628      O3269   1.300       .  A
C2628      O2637   1.304   1_556  A
O2629     Ni3272   1.970       .  S
O2629      C2635   1.283       .  A
O2630     Ni2648   1.876   1_554  S
O2630      C2632   1.260       .  A
Ni2631     O2634   1.905       .  S
Ni2631     O2636   1.949       .  S
C2632      C2677   1.546       .  S
C2632      O3266   1.314   1_554  A
O2633     Ni2649   1.980       .  S
O2633      C2639   1.303       .  A
O2634      C2639   1.258       .  A
O2636      C2638   1.293       .  A
O2637     Ni2648   2.006   1_554  S
C2638      O2644   1.292       .  A
H2640      O2641   0.959       .  S
O2641     Ni2649   1.944       .  S
O2641     Ni2643   1.885       .  S
O2641     Ni3272   1.831       .  S
O2642     Ni2643   2.050       .  S
O2642      C3256   1.311       .  A
Ni2643     O2647   1.961       .  S
Ni2643     O2645   1.956       .  S
O2644     Ni2649   2.031       .  S
O2645      C3252   1.298       .  A
C2646      O2647   1.297       .  A
Ni2648     O3253   1.970       .  S
Ni2648     O3265   1.829       .  S
C2651      C2652   1.528       .  S
C2651      C2657   1.499       .  S
C2651      C2655   1.545       .  S
C2651      C2873   1.503       .  S
C2652      C2653   1.365       .  D
C2652      H2659   1.086       .  S
C2653      C2654   1.596       .  S
C2653      C2780   1.539       .  S
C2654      H2660   1.106       .  S
C2654      C2658   1.605       .  S
C2654      C2656   1.517       .  S
C2655      C2656   1.374       .  D
C2655      H2661   1.082       .  S
C2656      C3069   1.473       .  S
C2657      C2658   1.339       .  D
C2657      H2662   1.092       .  S
C2658      C2697   1.536       .  S
C2663      C2664   1.558       .  S
C2663      C2669   1.492       .  S
C2663      C2667   1.597       .  S
C2664      C2665   1.389       .  D
C2664      H2671   1.084       .  S
C2665      C2666   1.523       .  S
C2665      C2803   1.491       .  S
C2666      H2672   1.094       .  S
C2666      C2670   1.523       .  S
C2666      C2668   1.501       .  S
C2667      C2668   1.415       .  D
C2667      H2673   1.083       .  S
C2668      C2701   1.543       .  S
C2669      C2670   1.326       .  D
C2669      H2674   1.090       .  S
C2670      C3052   1.418       .  S
C2675      C2676   1.517       .  S
C2675      C2681   1.529       .  S
C2675      C2679   1.574       .  S
C2675      C3013   1.534       .  S
C2676      C2677   1.387       .  D
C2676      H2683   1.086       .  S
C2677      C2678   1.631       .  S
C2678      H2684   1.110       .  S
C2678      C2682   1.620       .  S
C2678      C2680   1.488       .  S
C2679      C2680   1.366       .  D
C2679      H2685   1.084       .  S
C2680      C3041   1.451       .  S
C2681      C2682   1.334       .  D
C2681      H2686   1.092       .  S
C2682      C2700   1.585       .  S
O2687     Ni2693   1.937       .  S
O2687      C2708   1.285       .  A
O2688     Ni2711   2.009       .  S
O2688      C2697   1.308       .  A
O2689     Ni2693   1.871       .  S
O2689     Ni2711   1.878       .  S
O2689     Ni2705   1.883       .  S
O2689      H2712   0.967       .  S
C2690      C2737   1.555       .  S
C2690      O2707   1.300       .  A
C2690      O2699   1.297       .  A
O2691     Ni2710   1.963       .  S
O2691      C2697   1.284       .  A
O2692     Ni2710   1.919       .  S
O2692      C2694   1.268       .  A
Ni2693     O2696   1.928       .  S
Ni2693     O2698   1.930       .  S
C2694      O2704   1.302       .  A
O2695     Ni2711   2.044       .  S
O2695      C2701   1.337       .  A
O2696      C2701   1.288       .  A
O2698      C2700   1.279       .  A
O2699     Ni2710   2.000       .  S
C2700      O2706   1.271       .  A
H2702      O2703   0.964       .  S
O2703     Ni2711   1.951       .  S
O2703     Ni2705   1.893       .  S
O2703     Ni2710   1.866       .  S
O2704     Ni2705   1.993       .  S
Ni2705     O2709   2.021       .  S
Ni2705     O2707   1.964       .  S
O2706     Ni2711   2.005       .  S
C2708      O2709   1.315       .  A
C2713      H2714   1.104       .  S
C2713      C2719   1.545       .  S
C2713      C2718   1.531       .  S
C2713      C2717   1.541       .  S
C2715      H2716   1.114       .  S
C2715      C2721   1.510       .  S
C2715      C2720   1.498       .  S
C2715      C2722   1.495       .  S
C2717      C2720   1.378       .  D
C2717      C2901   1.474       .  S
C2718      C2721   1.371       .  D
C2718      C2800   1.465       .  S
C2719      C2722   1.373       .  D
C2719      C2789   1.473       .  S
C2720      C2845   1.456       .  S
C2721      C2814   1.462       .  S
C2722      C2831   1.468       .  S
C2723      C2724   1.543       .  S
C2723      C2729   1.513   1_545  S
C2723      C3975   1.541   1_545  S
C2723      C3080   1.510       .  S
C2724      C2725   1.384       .  D
C2724      H2731   1.086       .  S
C2725      C3974   1.587   1_545  S
C2726      H2732   1.109       .  S
C2726      C3973   1.589       .  S
C2726      C2730   1.581       .  S
C2726      C2728   1.503       .  S
C2727      C3971   1.540       .  S
C2727      C2728   1.362       .  D
C2727      H2733   1.075       .  S
C2728      C2985   1.451       .  S
C2729      C3978   1.327       .  D
C2729      H2734   1.093       .  S
C2730      C3977   1.328       .  D
C2730      C2773   1.530       .  S
C2735      C2736   1.520       .  S
C2735      C2741   1.506       .  S
C2735      C2739   1.569       .  S
C2735      C2786   1.510       .  S
C2736      C2737   1.387       .  D
C2736      H2743   1.084       .  S
C2737      C2738   1.630       .  S
C2738      H2744   1.105       .  S
C2738      C2742   1.631       .  S
C2738      C2740   1.502       .  S
C2739      C2740   1.363       .  D
C2739      H2745   1.084       .  S
C2740      C2971   1.483       .  S
C2741      C2742   1.326       .  D
C2741      H2746   1.090       .  S
C2742      C2772   1.585       .  S
C2747      C3372   1.535   1_554  S
C2747      C2753   1.493       .  S
C2747      C2751   1.533       .  S
C2747      C3483   1.511   1_554  S
C2748      C3371   1.535       .  S
C2748      C3373   1.386       .  D
C2748      H2755   1.087       .  S
C2749      C2750   1.598       .  S
C2749      C3372   1.387   1_554  D
C2750      H2756   1.110       .  S
C2750      C2754   1.600       .  S
C2750      C2752   1.529       .  S
C2751      C2752   1.362       .  D
C2751      H2757   1.079       .  S
C2752      C2954   1.461       .  S
C2753      C2754   1.325       .  D
C2753      H3382   1.096       .  S
C2754      C2769   1.519       .  S
H2758      C3377   1.096       .  S
O2759     Ni4013   1.943       .  S
O2759      C2780   1.275   1_565  A
O2760     Ni2783   1.978       .  S
O2760      C2769   1.294       .  A
O2761     Ni2765   1.934       .  S
O2761     Ni2783   1.928       .  S
O2761     Ni2777   1.937       .  S
O2761      H2784   0.967       .  S
C2762      C3215   1.553       .  S
C2762      O3403   1.302       .  A
C2762      O2771   1.304       .  A
O2763     Ni2782   1.969       .  S
O2763      C2769   1.283       .  A
O2764     Ni3406   1.887       .  S
O2764      C2766   1.266       .  A
Ni2765     O4007   1.938       .  S
Ni2765     O2768   1.911       .  S
Ni2765     O2770   1.958       .  S
C2766      O3400   1.311       .  A
O2767     Ni2783   1.957       .  S
O2767      C2773   1.297       .  A
O2768      C2773   1.262       .  A
O2770      C2772   1.298       .  A
O2771     Ni3406   2.009       .  S
C2772      O2778   1.291       .  A
H2774      O2775   0.961       .  S
O2775     Ni2783   1.936       .  S
O2775     Ni2777   1.887       .  S
O2775     Ni2782   1.836       .  S
O2776     Ni2777   2.055       .  S
O2776      C3390   1.308   1_554  A
Ni2777     O4029   1.962       .  S
Ni2777     O2779   1.959       .  S
O2778     Ni2783   2.028       .  S
O2779      C3386   1.302       .  A
C2780      O2781   1.296       .  A
O2781     Ni4025   1.963   1_545  S
Ni2782     O3388   1.887   1_554  S
Ni2782     O3395   2.007       .  S
C2785      C2786   1.421       .  A
C2785      C2790   1.381       .  A
C2785      H2792   1.081       .  S
C2786      C2787   1.419       .  A
C2787      C2788   1.399       .  A
C2787      N2794   1.431       .  S
C2788      C2789   1.408       .  A
C2788      H2793   1.085       .  S
C2789      C2790   1.394       .  A
C2790      N2791   1.432       .  S
N2791      H2795   1.046       .  S
N2791      H2796   1.046       .  S
N2794      H2797   1.044       .  S
N2794      H2798   1.044       .  S
C2799      C4048   1.385       .  A
C2799      C2804   1.389       .  A
C2799      H2806   1.084       .  S
C2800      C4047   1.385       .  A
C2800      C2801   1.399       .  A
C2801      C4050   1.397       .  A
C2801      N2808   1.432       .  S
C2802      C4049   1.396       .  A
C2802      C2803   1.409       .  A
C2802      H2807   1.082       .  S
C2803      C2804   1.429       .  A
C2804      N2805   1.427       .  S
N2805      H2809   1.045       .  S
N2805      H2810   1.045       .  S
N2808      H2811   1.045       .  S
N2808      H2812   1.045       .  S
C2813      C2814   1.400       .  A
C2813      C2818   1.398       .  A
C2813      H2820   1.085       .  S
C2814      C2815   1.407       .  A
C2815      C2816   1.392       .  A
C2815      N2822   1.434       .  S
C2816      C2817   1.405       .  A
C2816      H2821   1.082       .  S
C2817      C2818   1.412       .  A
C2818      N2819   1.432       .  S
N2819      H2823   1.046       .  S
N2819      H2824   1.046       .  S
N2822      H2825   1.044       .  S
N2822      H2826   1.044       .  S
C2827      C2828   1.402       .  A
C2827      C2832   1.386       .  A
C2827      H2834   1.082       .  S
C2828      C2829   1.411       .  A
C2829      C2830   1.390       .  A
C2829      N2836   1.438       .  S
C2830      C2831   1.404       .  A
C2830      H2835   1.082       .  S
C2831      C2832   1.396       .  A
C2832      N2833   1.428       .  S
N2833      H2837   1.045       .  S
N2833      H2838   1.045       .  S
N2836      H2839   1.044       .  S
N2836      H2840   1.045       .  S
C2841      C2842   1.401       .  A
C2841      C2846   1.391       .  A
C2841      H2848   1.083       .  S
C2842      C2843   1.413       .  A
C2843      C2844   1.383       .  A
C2843      N2850   1.438       .  S
C2844      C2845   1.397       .  A
C2844      H2849   1.083       .  S
C2845      C2846   1.401       .  A
C2846      N2847   1.435       .  S
N2847      H2851   1.044       .  S
N2847      H2852   1.045       .  S
N2850      H2853   1.044       .  S
N2850      H4102   1.045       .  S
H2854      N4098   1.045   1_545  S
C2855      C2856   1.385       .  A
C2855      C3484   1.384       .  A
C2855      H3486   1.083       .  S
C2856      C2857   1.399       .  A
C2857      C2858   1.391       .  A
C2857      N2864   1.433       .  S
C2858      C2859   1.417       .  A
C2858      H2863   1.083       .  S
C2859      C3371   1.506       .  S
C2859      C3484   1.439       .  A
C2860      C3479   1.384       .  A
C2860      C3483   1.438   1_554  A
C2860      N2861   1.432       .  S
N2861      H2865   1.046       .  S
N2861      H2866   1.046       .  S
H2862      C3479   1.083       .  S
N2864      H2867   1.044       .  S
N2864      H2868   1.046       .  S
C2869      C3494   1.395       .  A
C2869      C2874   1.386       .  A
C2869      H2876   1.080       .  S
C2870      C3493   1.393       .  A
C2870      C2871   1.402       .  A
C2871      C3496   1.386       .  A
C2871      N2878   1.434       .  S
C2872      C3495   1.390       .  A
C2872      C2873   1.412       .  A
C2872      H2877   1.082       .  S
C2873      C2874   1.422       .  A
C2874      N2875   1.440       .  S
N2875      H2879   1.046       .  S
N2875      H2880   1.045       .  S
N2878      H2881   1.045       .  S
N2878      H2882   1.043       .  S
C2883      C2884   1.423       .  A
C2883      C2888   1.383       .  A
C2883      H2890   1.079       .  S
C2884      C2885   1.414       .  A
C2885      C2886   1.410       .  A
C2885      N2892   1.432       .  S
C2886      C2887   1.409       .  A
C2886      H2891   1.083       .  S
C2887      C2888   1.383       .  A
C2888      N2889   1.432       .  S
N2889      H2893   1.046       .  S
N2889      H2894   1.045       .  S
N2892      H2895   1.045       .  S
N2892      H2896   1.044       .  S
C2897      C2898   1.417       .  A
C2897      C2902   1.388       .  A
C2897      H4152   1.081       .  S
C2898      C3789   1.509       .  S
C2898      C2899   1.413       .  A
C2899      C2900   1.402       .  A
C2899      N2906   1.432       .  S
C2900      C2901   1.406       .  A
C2900      H2905   1.084       .  S
C2901      C2902   1.401       .  A
C2902      N2903   1.437       .  S
N2903      H2907   1.046       .  S
N2903      H2908   1.045       .  S
H2904      C4145   1.080       .  S
N2906      H2909   1.046       .  S
N2906      H2910   1.045       .  S
C2911      C2912   1.389       .  A
C2911      C2916   1.392       .  A
C2911      H2918   1.082       .  S
C2912      C2913   1.407       .  A
C2913      C2914   1.406       .  A
C2913      N2920   1.438       .  S
C2914      C2915   1.411       .  A
C2914      H2919   1.078       .  S
C2915      C2916   1.407       .  A
C2916      N2917   1.421       .  S
N2917      H2921   1.046       .  S
N2917      H2922   1.040       .  S
N2920      H2923   1.044       .  S
N2920      H2924   1.046       .  S
C2925      C2926   1.400       .  A
C2925      C2930   1.380       .  A
C2925      H2932   1.080       .  S
C2926      C2927   1.396       .  A
C2927      C2928   1.379       .  A
C2927      N2934   1.439       .  S
C2928      C2929   1.403       .  A
C2928      H2933   1.084       .  S
C2929      C2930   1.390       .  A
C2930      N2931   1.437       .  S
N2931      H2935   1.045       .  S
N2931      H2936   1.046       .  S
N2934      H2937   1.046       .  S
N2934      H2938   1.045       .  S
C2939      C2940   1.407       .  A
C2939      C2944   1.402       .  A
C2939      H2946   1.080       .  S
C2940      C2941   1.418       .  A
C2941      C2942   1.381       .  A
C2941      N2948   1.437       .  S
C2942      C2943   1.399       .  A
C2942      H2947   1.079       .  S
C2943      C2944   1.399       .  A
C2944      N2945   1.435       .  S
N2945      H2949   1.043       .  S
N2945      H2950   1.044       .  S
N2948      H2951   1.043       .  S
N2948      H2952   1.045       .  S
C2953      C2954   1.400       .  A
C2953      C2958   1.387       .  A
C2953      H2960   1.083       .  S
C2954      C2955   1.415       .  A
C2955      C2956   1.389       .  A
C2955      N2962   1.438       .  S
C2956      C2957   1.398       .  A
C2956      H2961   1.081       .  S
C2957      C2958   1.402       .  A
C2958      N2959   1.428       .  S
N2959      H2963   1.046       .  S
N2959      H2964   1.044       .  S
N2962      H2965   1.044       .  S
N2962      H2966   1.045       .  S
C2967      C2968   1.397       .  A
C2967      C2972   1.391       .  A
C2967      H2974   1.076       .  S
C2968      C2969   1.409       .  A
C2969      C2970   1.392       .  A
C2969      N2976   1.436       .  S
C2970      C2971   1.404       .  A
C2970      H2975   1.080       .  S
C2971      C2972   1.415       .  A
C2972      N2973   1.433       .  S
N2973      H2977   1.045       .  S
N2973      H2978   1.046       .  S
N2976      H2979   1.044       .  S
N2976      H2980   1.044       .  S
C2981      C2982   1.403       .  A
C2981      C2986   1.384       .  A
C2981      H2988   1.080       .  S
C2982      C2983   1.394       .  A
C2983      C2984   1.383       .  A
C2983      N2990   1.430       .  S
C2984      C2985   1.404       .  A
C2984      H2989   1.081       .  S
C2985      C2986   1.402       .  A
C2986      N2987   1.438       .  S
N2987      H2992   1.045       .  S
N2990      H2993   1.045       .  S
N2990      H2994   1.045       .  S
C2995      C3000   1.401       .  A
C2995      H3002   1.084       .  S
C2996      C2997   1.444       .  A
C2997      C2998   1.391       .  A
C2997      N3004   1.430       .  S
C2998      H3003   1.084       .  S
C2999      C3000   1.407       .  A
C3000      N3001   1.432       .  S
N3001      H3005   1.045       .  S
N3001      H3006   1.045       .  S
N3004      H3007   1.042       .  S
N3004      H3008   1.042       .  S
C3009      C3014   1.406       .  A
C3009      H3016   1.085       .  S
C3010      C3011   1.397       .  A
C3011      N3018   1.431       .  S
C3012      C3013   1.420       .  A
C3012      H3017   1.078       .  S
C3013      C3014   1.417       .  A
C3014      N3015   1.432       .  S
N3015      H3019   1.046       .  S
N3015      H3020   1.046       .  S
N3018      H3021   1.045   1_455  S
N3018      H3022   1.044       .  S
C3023      C3024   1.408       .  A
C3023      C3028   1.402       .  A
C3023      H3030   1.084       .  S
C3024      C3025   1.400       .  A
C3025      C3026   1.391       .  A
C3025      N3032   1.431       .  S
C3026      C3027   1.404       .  A
C3026      H3031   1.082       .  S
C3027      C3028   1.399       .  A
C3028      N3029   1.426       .  S
N3029      H3033   1.045       .  S
N3029      H3034   1.046       .  S
N3032      H3035   1.045       .  S
N3032      H3036   1.045       .  S
C3037      C3038   1.405       .  A
C3037      C3042   1.399       .  A
C3037      H3044   1.081       .  S
C3038      C3039   1.418       .  A
C3039      C3040   1.383       .  A
C3039      N3046   1.429       .  S
C3040      C3041   1.386       .  A
C3040      H3045   1.082       .  S
C3041      C3042   1.413       .  A
C3042      N3043   1.431       .  S
N3043      H3047   1.044       .  S
N3043      H3048   1.046       .  S
N3046      H3049   1.046       .  S
N3046      H3050   1.045       .  S
C3051      C3052   1.388       .  A
C3051      C3056   1.372       .  A
C3051      H3058   1.085       .  S
C3052      C3053   1.396       .  A
C3053      C3054   1.389       .  A
C3053      N3060   1.432   1_545  S
C3054      C3055   1.402       .  A
C3054      H3059   1.084   1_545  S
C3055      C3056   1.400       .  A
C3056      N3057   1.424       .  S
N3057      H3062   1.046       .  S
N3060      H3063   1.044       .  S
N3060      H3064   1.045       .  S
C3065      C3066   1.402       .  A
C3065      C3070   1.383       .  A
C3065      H3072   1.078       .  S
C3066      C3067   1.405       .  A
C3067      C3068   1.393       .  A
C3067      N3074   1.435       .  S
C3068      C3069   1.408       .  A
C3068      H3073   1.078       .  S
C3069      C3070   1.407       .  A
C3070      N3071   1.438       .  S
N3071      H3075   1.046       .  S
N3071      H3076   1.046       .  S
N3074      H3077   1.044   1_545  S
N3074      H3078   1.045       .  S
C3079      C3080   1.413       .  A
C3079      H3086   1.084       .  S
C3080      C4329   1.450   1_545  A
C3081      C4328   1.450       .  A
C3081      N3088   1.432       .  S
C3082      C3083   1.377   1_565  A
C3082      H4335   1.085       .  S
C3083      C3084   1.402       .  A
C3084      N3085   1.431       .  S
N3085      H3089   1.046       .  S
N3085      H3090   1.045       .  S
H3087      C4330   1.085       .  S
N3088      H3091   1.042       .  S
N3088      H3092   1.043       .  S
C3093      C3718   1.400       .  A
C3093      C3098   1.379       .  A
C3093      H3100   1.074       .  S
C3094      C3717   1.401   1_554  A
C3094      C3095   1.418       .  A
C3095      C3720   1.380   1_554  A
C3095      N3102   1.425       .  S
C3096      C3719   1.380       .  A
C3096      C3097   1.389       .  A
C3096      H3725   1.084       .  S
C3097      C3098   1.407       .  A
C3098      N3099   1.440       .  S
N3099      H3103   1.046       .  S
N3099      H3104   1.046       .  S
H3101      C3720   1.084       .  S
N3102      H3105   1.042       .  S
N3102      H3106   1.044       .  S
C3107      C4356   1.401       .  A
C3107      C3112   1.389       .  A
C3107      H3114   1.085       .  S
C3108      C4355   1.403       .  A
C3108      C3109   1.406   1_554  A
C3109      C4982   1.381       .  A
C3109      N3740   1.427   1_565  S
C3110      C4981   1.378       .  A
C3110      C3735   1.414       .  A
C3110      H3115   1.075       .  S
C3111      C3734   1.413   1_554  A
C3111      C3112   1.426       .  A
C3112      N3113   1.434       .  S
N3113      H3117   1.044       .  S
N3113      H3118   1.043       .  S
N3116      C3733   1.426   1_545  S
N3116      H3119   1.041       .  S
N3116      H3120   1.044   1_545  S
C3121      H3122   1.104       .  S
C3121      C3127   1.542       .  S
C3121      C3126   1.500       .  S
C3121      C3125   1.551       .  S
C3123      H3124   1.094       .  S
C3123      C3129   1.511       .  S
C3123      C3128   1.521       .  S
C3123      C3130   1.489       .  S
C3125      C3128   1.391       .  D
C3125      C3718   1.468       .  S
C3126      C3129   1.355       .  D
C3126      C3707   1.458       .  S
C3127      C3130   1.372       .  D
C3127      C3732   1.475   1_545  S
C3128      C3662   1.504       .  S
C3129      C3679   1.439       .  S
C3130      C3690   1.474       .  S
C3131      H3132   1.110       .  S
C3131      C3137   1.542       .  S
C3131      C3136   1.541       .  S
C3131      C3135   1.563       .  S
C3133      H3134   1.113       .  S
C3133      C3139   1.505       .  S
C3133      C3138   1.488       .  S
C3133      C3140   1.505       .  S
C3135      C3138   1.371       .  D
C3135      C3634   1.483   1_655  S
C3136      C3139   1.374       .  D
C3136      C3648   1.466       .  S
C3137      C3140   1.370       .  D
C3137      C3623   1.477       .  S
C3138      C3581   1.466       .  S
C3139      C3592   1.463       .  S
C3140      C3606   1.457       .  S
C3141      C3142   1.520       .  S
C3141      C3147   1.505       .  S
C3141      C3721   1.476       .  S
C3142      C3143   1.359       .  D
C3142      H3149   1.086       .  S
C3143      C3270   1.534       .  S
C3144      H3150   1.108       .  S
C3144      C3148   1.616       .  S
C3144      C3146   1.511       .  S
C3145      C3146   1.365       .  D
C3145      H3151   1.084       .  S
C3146      C3564   1.476       .  S
C3147      H3152   1.086       .  S
C3148      C3187   1.552       .  S
C3153      C3154   1.541       .  S
C3153      C3159   1.504       .  S
C3153      C3157   1.601       .  S
C3153      C3318   1.561       .  S
C3154      C3155   1.364       .  D
C3154      H3161   1.087       .  S
C3155      C3156   1.514       .  S
C3155      C3651   1.473       .  S
C3156      H3162   1.112       .  S
C3156      C3160   1.537       .  S
C3156      C3158   1.505       .  S
C3157      C3158   1.421       .  D
C3157      H3163   1.084       .  S
C3158      C3191   1.529       .  S
C3159      C3160   1.336       .  D
C3159      H3164   1.088       .  S
C3160      C3553   1.427       .  S
C3165      C4414   1.504   1_545  S
C3165      C3171   1.519       .  S
C3165      C3169   1.560       .  S
C3165      C4770   1.511   1_545  S
C3166      C4413   1.503       .  S
C3166      C3167   1.389       .  D
C3166      H3173   1.087       .  S
C3167      C4416   1.657       .  S
C3167      C3390   1.558       .  S
C3168      H3174   1.110       .  S
C3168      C4415   1.660       .  S
C3168      C3172   1.635       .  S
C3168      C3170   1.509       .  S
C3169      C3170   1.353       .  D
C3169      H3175   1.085       .  S
C3170      C3536   1.461       .  S
C3171      C3172   1.330       .  D
C3171      H4424   1.091   1_545  S
C3172      C3190   1.600       .  S
H3176      C4419   1.091       .  S
O3177     Ni3183   1.923       .  S
O3177      C3198   1.283       .  A
O3178     Ni3201   2.016       .  S
O3178      C3187   1.310       .  A
O3179     Ni3183   1.858       .  S
O3179     Ni3201   1.880       .  S
O3179     Ni3195   1.871       .  S
O3179      H3202   0.967       .  S
C3180      C4487   1.560   1_545  S
C3180      O3189   1.301       .  A
O3181      C3187   1.288       .  A
O3182     Ni3200   1.906       .  S
O3182      C3184   1.265       .  A
Ni3183     O3186   1.923       .  S
Ni3183     O3188   1.937       .  S
C3184      C3287   1.561       .  S
O3185     Ni3201   2.036       .  S
O3185      C3191   1.336       .  A
O3186      C3191   1.284       .  A
O3188      C3190   1.284       .  A
O3189     Ni3200   2.010       .  S
C3190      O3196   1.276       .  A
H3192      O3193   0.965       .  S
O3193     Ni3201   1.958       .  S
O3193     Ni3195   1.898       .  S
O3194     Ni3195   2.012       .  S
Ni3195     O3199   2.025       .  S
Ni3195     O4445   1.965       .  S
O3196     Ni3201   2.016       .  S
O3197     Ni4443   1.963       .  S
C3198      C3349   1.527       .  S
C3198      O3199   1.317       .  A
C3203      H3204   1.110       .  S
C3203      C3209   1.500       .  S
C3203      C3208   1.508       .  S
C3203      C3207   1.522       .  S
C3205      H3206   1.111       .  S
C3205      C3211   1.538       .  S
C3205      C3210   1.549       .  S
C3205      C3212   1.513       .  S
C3207      C3210   1.385       .  D
C3207      C3539   1.499       .  S
C3208      C3211   1.376       .  D
C3208      C3567   1.472       .  S
C3209      C3212   1.358       .  D
C3209      C3550   1.428       .  S
C3210      C3494   1.458   1_556  S
C3211      C3480   1.464       .  S
C3212      C3511   1.465       .  S
C3213      C3214   1.523       .  S
C3213      C3219   1.494       .  S
C3213      C3735   1.510       .  S
C3214      C3215   1.381       .  D
C3214      H3221   1.085       .  S
C3216      H3222   1.108       .  S
C3216      C3220   1.605       .  S
C3216      C3218   1.514       .  S
C3217      C3218   1.362       .  D
C3217      H3223   1.080       .  S
C3218      C3466   1.458       .  S
C3219      H3224   1.094       .  S
C3220      C3259   1.530       .  S
C3225      C3226   1.539       .  S
C3225      C3231   1.510       .  S
C3225      C3229   1.564       .  S
C3225      C3508   1.509       .  S
C3226      C3227   1.386       .  D
C3226      H3233   1.085       .  S
C3227      C3228   1.599       .  S
C3227      C3332   1.532       .  S
C3228      H3234   1.109       .  S
C3228      C3232   1.594       .  S
C3228      C3230   1.502       .  S
C3229      C3230   1.360       .  D
C3229      H3235   1.084       .  S
C3230      C3452   1.465       .  S
C3231      C3232   1.324       .  D
C3231      H3236   1.093       .  S
C3232      C3263   1.538       .  S
C3237      C3243   1.502       .  S
C3237      C3241   1.550       .  S
C3237      C3620   1.528       .  S
C3238      H3245   1.086       .  S
C3239      C3240   1.632       .  S
C3239      C4428   1.563       .  S
C3240      H3246   1.107       .  S
C3240      C3244   1.623       .  S
C3240      C3242   1.503       .  S
C3241      C3242   1.368       .  D
C3241      H3247   1.078       .  S
C3242      C3441   1.477       .  S
C3243      C3244   1.327       .  D
C3243      H3248   1.089       .  S
C3244      C3262   1.574       .  S
O3249     Ni3255   1.935       .  S
O3249      C3270   1.271       .  A
O3250     Ni3273   1.989       .  S
O3250      C3259   1.298       .  A
O3251     Ni3255   1.933       .  S
O3251     Ni3273   1.930       .  S
O3251     Ni3267   1.935       .  S
O3251      H3274   0.967       .  S
C3252      O3261   1.304       .  A
O3253      C3259   1.283       .  A
O3254     Ni3272   1.876       .  S
O3254      C3256   1.260       .  A
Ni3255     O3258   1.908       .  S
Ni3255     O3260   1.953       .  S
C3256      C3301   1.538       .  S
O3257     Ni3273   1.974       .  S
O3257      C3263   1.302       .  A
O3258      C3263   1.260       .  A
O3260      C3262   1.294       .  A
O3261     Ni3272   2.009       .  S
C3262      O3268   1.292       .  A
H3264      O3265   0.960       .  S
O3265     Ni3273   1.942       .  S
O3265     Ni3267   1.882       .  S
O3266     Ni3267   2.059       .  S
Ni3267     O3271   1.965       .  S
Ni3267     O3269   1.957       .  S
O3268     Ni3273   2.030       .  S
C3270      O3271   1.298       .  A
C3275      C3276   1.527       .  S
C3275      C3281   1.499       .  S
C3275      C3279   1.544       .  S
C3275      C3497   1.495       .  S
C3276      C3277   1.364       .  D
C3276      H3283   1.087       .  S
C3277      C3278   1.600       .  S
C3277      C3404   1.542       .  S
C3278      H3284   1.106       .  S
C3278      C3282   1.608       .  S
C3278      C3280   1.516       .  S
C3279      C3280   1.371       .  D
C3279      H3285   1.082       .  S
C3280      C3693   1.470       .  S
C3281      C3282   1.338       .  D
C3281      H3286   1.092       .  S
C3282      C3321   1.541       .  S
C3287      C3288   1.555       .  S
C3287      C3293   1.492       .  S
C3287      C3291   1.597       .  S
C3288      C3289   1.386       .  D
C3288      H3295   1.085       .  S
C3289      C3290   1.523       .  S
C3289      C3427   1.487       .  S
C3290      H3296   1.096       .  S
C3290      C3294   1.523       .  S
C3290      C3292   1.504       .  S
C3291      C3292   1.415       .  D
C3291      H3297   1.084       .  S
C3292      C3325   1.543       .  S
C3293      C3294   1.326       .  D
C3293      H3298   1.090       .  S
C3294      C3676   1.417       .  S
C3299      C3300   1.514       .  S
C3299      C3305   1.528       .  S
C3299      C3303   1.572       .  S
C3299      C3637   1.531       .  S
C3300      C3301   1.387       .  D
C3300      H3307   1.086       .  S
C3301      C3302   1.632       .  S
C3302      H3308   1.110       .  S
C3302      C3306   1.618       .  S
C3302      C3304   1.487       .  S
C3303      C3304   1.366       .  D
C3303      H3309   1.084       .  S
C3304      C3665   1.448       .  S
C3305      C3306   1.333       .  D
C3305      H3310   1.091       .  S
C3306      C3324   1.588       .  S
O3311     Ni3317   1.931       .  S
O3311      C3332   1.286       .  A
O3312     Ni3335   2.014       .  S
O3312      C3321   1.309       .  A
O3313     Ni3317   1.862       .  S
O3313     Ni3335   1.881       .  S
O3313     Ni3329   1.876       .  S
O3313      H3336   0.967       .  S
C3314      C3361   1.553       .  S
C3314      O3331   1.299       .  A
C3314      O3323   1.297       .  A
O3315     Ni3334   1.965       .  S
O3315      C3321   1.284       .  A
O3316     Ni3334   1.921       .  S
O3316      C3318   1.268       .  A
Ni3317     O3320   1.936       .  S
Ni3317     O3322   1.922       .  S
C3318      O3328   1.300       .  A
O3319     Ni3335   2.036       .  S
O3319      C3325   1.335       .  A
O3320      C3325   1.289       .  A
O3322      C3324   1.281       .  A
O3323     Ni3334   2.000       .  S
C3324      O3330   1.275       .  A
H3326      O3327   0.964       .  S
O3327     Ni3335   1.951       .  S
O3327     Ni3329   1.898       .  S
O3327     Ni3334   1.868       .  S
O3328     Ni3329   1.989       .  S
Ni3329     O3333   2.024       .  S
Ni3329     O3331   1.962       .  S
O3330     Ni3335   2.007       .  S
C3332      O3333   1.316       .  A
C3337      H3338   1.106       .  S
C3337      C3343   1.540       .  S
C3337      C3342   1.530       .  S
C3337      C3341   1.541       .  S
C3339      H3340   1.114       .  S
C3339      C3345   1.510       .  S
C3339      C3344   1.500       .  S
C3339      C3346   1.496       .  S
C3341      C3344   1.379       .  D
C3341      C3525   1.475       .  S
C3342      C3345   1.372       .  D
C3342      C3424   1.461       .  S
C3343      C3346   1.372       .  D
C3343      C3413   1.468       .  S
C3344      C3469   1.458       .  S
C3345      C3438   1.465       .  S
C3346      C3455   1.466       .  S
C3347      C3348   1.543       .  S
C3347      C3353   1.513   1_545  S
C3347      C4599   1.542   1_545  S
C3347      C3704   1.513       .  S
C3348      C3349   1.384       .  D
C3348      H3355   1.086       .  S
C3349      C4598   1.588   1_545  S
C3350      H3356   1.109       .  S
C3350      C4597   1.587       .  S
C3350      C3354   1.578       .  S
C3350      C3352   1.502       .  S
C3351      C4595   1.540       .  S
C3351      C3352   1.362       .  D
C3351      H3357   1.075       .  S
C3352      C3609   1.451       .  S
C3353      C4602   1.328       .  D
C3353      H3358   1.093   1_565  S
C3354      C4601   1.328       .  D
C3354      C3397   1.527       .  S
C3359      C3360   1.520       .  S
C3359      C3365   1.506       .  S
C3359      C3363   1.571       .  S
C3359      C3410   1.509       .  S
C3360      C3361   1.390       .  D
C3360      H3367   1.085       .  S
C3361      C3362   1.630       .  S
C3362      H3368   1.105       .  S
C3362      C3366   1.634       .  S
C3362      C3364   1.504       .  S
C3363      C3364   1.362       .  D
C3363      H3369   1.083       .  S
C3364      C3595   1.489       .  S
C3365      C3366   1.321       .  D
C3365      H3370   1.091       .  S
C3366      C3396   1.585       .  S
C3371      C3377   1.492       .  S
C3371      C3375   1.525       .  S
C3372      H3379   1.087       .  S
C3373      C3374   1.594       .  S
C3374      H3380   1.109       .  S
C3374      C3378   1.600       .  S
C3374      C3376   1.534       .  S
C3375      C3376   1.362       .  D
C3375      H3381   1.077       .  S
C3376      C3578   1.461       .  S
C3377      C3378   1.325       .  D
C3378      C3393   1.515       .  S
O3383     Ni4637   1.940       .  S
O3383      C3404   1.274   1_565  A
O3384     Ni3407   1.972       .  S
O3384      C3393   1.292       .  A
O3385     Ni3389   1.937       .  S
O3385     Ni3407   1.932       .  S
O3385     Ni3401   1.937       .  S
O3385      H3408   0.966       .  S
C3386      O3395   1.303       .  A
O3387     Ni3406   1.971       .  S
O3387      C3393   1.283       .  A
O3388      C3390   1.265       .  A
Ni3389     O4631   1.942       .  S
Ni3389     O3392   1.906       .  S
Ni3389     O3394   1.958       .  S
O3391     Ni3407   1.952       .  S
O3391      C3397   1.294       .  A
O3392      C3397   1.259       .  A
O3394      C3396   1.300       .  A
C3396      O3402   1.290       .  A
H3398      O3399   0.961       .  S
O3399     Ni3407   1.934       .  S
O3399     Ni3401   1.890       .  S
O3399     Ni3406   1.835       .  S
O3400     Ni3401   2.062       .  S
Ni3401     O4653   1.965       .  S
Ni3401     O3403   1.962       .  S
O3402     Ni3407   2.025       .  S
C3404      O3405   1.297       .  A
O3405     Ni4649   1.969   1_545  S
C3409      C3410   1.423       .  A
C3409      C3414   1.379       .  A
C3409      H3416   1.081       .  S
C3410      C3411   1.419       .  A
C3411      C3412   1.398       .  A
C3411      N3418   1.431       .  S
C3412      C3413   1.407       .  A
C3412      H3417   1.085       .  S
C3413      C3414   1.393       .  A
C3414      N3415   1.433       .  S
N3415      H3419   1.046       .  S
N3415      H3420   1.046       .  S
N3418      H3421   1.044       .  S
N3418      H3422   1.044       .  S
C3423      C4672   1.386       .  A
C3423      C3428   1.390       .  A
C3423      H3430   1.084       .  S
C3424      C4671   1.386       .  A
C3424      C3425   1.398       .  A
C3425      C4674   1.396       .  A
C3425      N3432   1.432       .  S
C3426      C4673   1.397       .  A
C3426      C3427   1.409       .  A
C3426      H3431   1.083       .  S
C3427      C3428   1.426       .  A
C3428      N3429   1.428       .  S
N3429      H3433   1.046       .  S
N3429      H3434   1.045       .  S
N3432      H3435   1.045       .  S
N3432      H3436   1.045       .  S
C3437      C3438   1.402       .  A
C3437      C3442   1.399       .  A
C3437      H3444   1.084       .  S
C3438      C3439   1.408       .  A
C3439      C3440   1.390       .  A
C3439      N3446   1.431       .  S
C3440      C3441   1.402       .  A
C3440      H3445   1.083       .  S
C3441      C3442   1.409       .  A
C3442      N3443   1.432       .  S
N3443      H3447   1.046       .  S
N3443      H3448   1.046       .  S
N3446      H3449   1.044       .  S
N3446      H3450   1.043       .  S
C3451      C3452   1.402       .  A
C3451      C3456   1.387       .  A
C3451      H3458   1.082       .  S
C3452      C3453   1.412       .  A
C3453      C3454   1.391       .  A
C3453      N3460   1.437       .  S
C3454      C3455   1.403       .  A
C3454      H3459   1.083       .  S
C3455      C3456   1.395       .  A
C3456      N3457   1.428       .  S
N3457      H3461   1.045       .  S
N3457      H3462   1.045       .  S
N3460      H3463   1.044       .  S
N3460      H3464   1.045       .  S
C3465      C3466   1.402       .  A
C3465      C3470   1.394       .  A
C3465      H3472   1.083       .  S
C3466      C3467   1.413       .  A
C3467      C3468   1.382       .  A
C3467      N3474   1.438       .  S
C3468      C3469   1.396       .  A
C3468      H3473   1.083       .  S
C3469      C3470   1.401       .  A
C3470      N3471   1.434       .  S
N3471      H3475   1.044       .  S
N3471      H3476   1.045       .  S
N3474      H3477   1.044       .  S
N3474      H4726   1.045       .  S
H3478      N4722   1.045   1_545  S
C3479      C3480   1.384   1_554  A
C3480      C3481   1.402       .  A
C3481      C3482   1.395       .  A
C3481      N3488   1.434       .  S
C3482      C3483   1.419       .  A
C3482      H3487   1.084       .  S
C3484      N3485   1.432       .  S
N3485      H3489   1.046       .  S
N3485      H3490   1.046       .  S
N3488      H3491   1.044       .  S
N3488      H3492   1.045       .  S
C3493      C3498   1.382       .  A
C3493      H3500   1.081       .  S
C3494      C3495   1.405       .  A
C3495      N3502   1.434       .  S
C3496      C3497   1.411       .  A
C3496      H3501   1.082       .  S
C3497      C3498   1.423       .  A
C3498      N3499   1.441       .  S
N3499      H3503   1.046       .  S
N3499      H3504   1.045       .  S
N3502      H3505   1.045       .  S
N3502      H3506   1.042   1_554  S
C3507      C3508   1.422       .  A
C3507      C3512   1.385       .  A
C3507      H3514   1.080       .  S
C3508      C3509   1.413       .  A
C3509      C3510   1.410       .  A
C3509      N3516   1.432       .  S
C3510      C3511   1.409       .  A
C3510      H3515   1.083       .  S
C3511      C3512   1.384       .  A
C3512      N3513   1.431       .  S
N3513      H3517   1.046       .  S
N3513      H3518   1.045       .  S
N3516      H3519   1.045       .  S
N3516      H3520   1.044       .  S
C3521      C3522   1.417       .  A
C3521      C3526   1.388       .  A
C3521      H4776   1.080       .  S
C3522      C4413   1.511       .  S
C3522      C3523   1.414       .  A
C3523      C3524   1.402       .  A
C3523      N3530   1.432       .  S
C3524      C3525   1.406       .  A
C3524      H3529   1.084       .  S
C3525      C3526   1.401       .  A
C3526      N3527   1.437       .  S
N3527      H3531   1.046       .  S
N3527      H3532   1.045       .  S
H3528      C4769   1.080       .  S
N3530      H3533   1.046       .  S
N3530      H3534   1.046       .  S
C3535      C3536   1.389       .  A
C3535      C3540   1.391       .  A
C3535      H3542   1.081       .  S
C3536      C3537   1.404       .  A
C3537      C3538   1.403       .  A
C3537      N3544   1.438       .  S
C3538      C3539   1.411       .  A
C3538      H3543   1.077       .  S
C3539      C3540   1.408       .  A
C3540      N3541   1.422       .  S
N3541      H3545   1.045       .  S
N3541      H3546   1.040       .  S
N3544      H3547   1.045       .  S
N3544      H3548   1.046       .  S
C3549      C3550   1.400       .  A
C3549      C3554   1.381       .  A
C3549      H3556   1.079       .  S
C3550      C3551   1.395       .  A
C3551      C3552   1.380       .  A
C3551      N3558   1.439       .  S
C3552      C3553   1.404       .  A
C3552      H3557   1.084       .  S
C3553      C3554   1.390       .  A
C3554      N3555   1.437       .  S
N3555      H3559   1.045       .  S
N3555      H3560   1.046       .  S
N3558      H3561   1.045       .  S
N3558      H3562   1.045       .  S
C3563      C3564   1.405       .  A
C3563      C3568   1.401       .  A
C3563      H3570   1.080       .  S
C3564      C3565   1.417       .  A
C3565      C3566   1.378       .  A
C3565      N3572   1.437       .  S
C3566      C3567   1.399       .  A
C3566      H3571   1.080       .  S
C3567      C3568   1.399       .  A
C3568      N3569   1.434       .  S
N3569      H3573   1.042       .  S
N3569      H3574   1.044       .  S
N3572      H3575   1.043       .  S
N3572      H3576   1.045       .  S
C3577      C3578   1.400       .  A
C3577      C3582   1.386       .  A
C3577      H3584   1.082       .  S
C3578      C3579   1.417       .  A
C3579      C3580   1.386       .  A
C3579      N3586   1.439       .  S
C3580      C3581   1.396       .  A
C3580      H3585   1.082       .  S
C3581      C3582   1.400       .  A
C3582      N3583   1.427       .  S
N3583      H3587   1.046       .  S
N3583      H3588   1.045       .  S
N3586      H3589   1.044       .  S
N3586      H3590   1.045       .  S
C3591      C3592   1.397       .  A
C3591      C3596   1.393       .  A
C3591      H3598   1.078       .  S
C3592      C3593   1.408       .  A
C3593      C3594   1.391       .  A
C3593      N3600   1.436       .  S
C3594      C3595   1.404       .  A
C3594      H3599   1.079       .  S
C3595      C3596   1.417       .  A
C3596      N3597   1.433       .  S
N3597      H3601   1.046       .  S
N3597      H3602   1.046       .  S
N3600      H3603   1.044       .  S
N3600      H3604   1.044       .  S
C3605      C3606   1.402       .  A
C3605      C3610   1.384       .  A
C3605      H3612   1.080       .  S
C3606      C3607   1.394       .  A
C3607      C3608   1.384       .  A
C3607      N3614   1.430       .  S
C3608      C3609   1.404       .  A
C3608      H3613   1.082       .  S
C3609      C3610   1.402       .  A
C3610      N3611   1.438       .  S
N3611      H3616   1.046       .  S
N3614      H3617   1.045       .  S
N3614      H3618   1.045       .  S
C3619      C3624   1.400       .  A
C3619      H3626   1.084       .  S
C3620      C3621   1.445       .  A
C3621      C3622   1.392       .  A
C3621      N3628   1.430       .  S
C3622      H3627   1.085       .  S
C3623      C3624   1.407       .  A
C3624      N3625   1.431       .  S
N3625      H3629   1.044       .  S
N3625      H3630   1.045       .  S
N3628      H3631   1.042       .  S
N3628      H3632   1.043       .  S
C3633      C3638   1.404       .  A
C3633      H3640   1.085       .  S
C3634      C3635   1.397       .  A
C3635      N3642   1.429       .  S
C3636      C3637   1.419       .  A
C3636      H3641   1.078       .  S
C3637      C3638   1.417       .  A
C3638      N3639   1.432       .  S
N3639      H3643   1.045       .  S
N3639      H3644   1.045       .  S
N3642      H3645   1.045   1_455  S
N3642      H3646   1.043       .  S
C3647      C3648   1.409       .  A
C3647      C3652   1.402       .  A
C3647      H3654   1.084       .  S
C3648      C3649   1.399       .  A
C3649      C3650   1.391       .  A
C3649      N3656   1.431       .  S
C3650      C3651   1.405       .  A
C3650      H3655   1.082       .  S
C3651      C3652   1.397       .  A
C3652      N3653   1.426       .  S
N3653      H3657   1.044       .  S
N3653      H3658   1.046       .  S
N3656      H3659   1.045       .  S
N3656      H3660   1.045       .  S
C3661      C3662   1.405       .  A
C3661      C3666   1.399       .  A
C3661      H3668   1.081       .  S
C3662      C3663   1.418       .  A
C3663      C3664   1.381       .  A
C3663      N3670   1.429       .  S
C3664      C3665   1.385       .  A
C3664      H3669   1.083       .  S
C3665      C3666   1.414       .  A
C3666      N3667   1.432       .  S
N3667      H3671   1.044       .  S
N3667      H3672   1.046       .  S
N3670      H3673   1.046       .  S
N3670      H3674   1.046       .  S
C3675      C3676   1.387       .  A
C3675      C3680   1.372       .  A
C3675      H3682   1.086       .  S
C3676      C3677   1.397       .  A
C3677      C3678   1.390       .  A
C3677      N3684   1.433   1_545  S
C3678      C3679   1.403       .  A
C3678      H3683   1.084   1_545  S
C3679      C3680   1.400       .  A
C3680      N3681   1.425       .  S
N3681      H3686   1.046       .  S
N3684      H3687   1.044       .  S
N3684      H3688   1.045       .  S
C3689      C3690   1.402       .  A
C3689      C3694   1.384       .  A
C3689      H3696   1.079       .  S
C3690      C3691   1.405       .  A
C3691      C3692   1.390       .  A
C3691      N3698   1.434       .  S
C3692      C3693   1.406       .  A
C3692      H3697   1.078       .  S
C3693      C3694   1.408       .  A
C3694      N3695   1.439       .  S
N3695      H3699   1.046       .  S
N3695      H3700   1.046       .  S
N3698      H3701   1.044   1_545  S
N3698      H3702   1.045       .  S
C3703      C3704   1.412       .  A
C3703      H3710   1.084       .  S
C3704      C4953   1.449   1_545  A
C3705      C4952   1.450       .  A
C3705      N3712   1.432       .  S
C3706      C3707   1.377   1_565  A
C3706      H4959   1.085       .  S
C3707      C3708   1.401       .  A
C3708      N3709   1.431       .  S
N3709      H3713   1.045       .  S
N3709      H3714   1.045       .  S
H3711      C4954   1.085       .  S
N3712      H3715   1.041       .  S
N3712      H3716   1.043       .  S
C3717      C3722   1.378       .  A
C3717      H3724   1.074       .  S
C3718      C3719   1.417       .  A
C3719      N3726   1.426       .  S
C3720      C3721   1.388       .  A
C3721      C3722   1.406       .  A
C3722      N3723   1.440       .  S
N3723      H3727   1.046       .  S
N3723      H3728   1.046       .  S
N3726      H3729   1.042       .  S
N3726      H3730   1.044       .  S
C3731      C4980   1.404       .  A
C3731      C3736   1.394       .  A
C3731      H3738   1.085       .  S
C3732      C4979   1.403       .  A
C3732      C3733   1.405       .  A
C3733      C4358   1.379       .  A
C3734      C4357   1.379       .  A
C3734      H3739   1.074       .  S
C3735      C3736   1.426       .  A
C3736      N3737   1.434       .  S
N3737      H3741   1.044       .  S
N3737      H3742   1.043       .  S
N3740      H3743   1.041       .  S
N3740      H3744   1.044       .  S
C3745      H3746   1.105       .  S
C3745      C3751   1.538       .  S
C3745      C3750   1.500       .  S
C3745      C3749   1.550       .  S
C3747      H3748   1.095       .  S
C3747      C3753   1.509       .  S
C3747      C3752   1.521       .  S
C3747      C3754   1.489       .  S
C3749      C3752   1.390       .  D
C3749      C4342   1.467       .  S
C3750      C3753   1.357       .  D
C3750      C4331   1.455       .  S
C3751      C3754   1.371       .  D
C3751      C4356   1.469       .  S
C3752      C4286   1.503       .  S
C3753      C4303   1.440       .  S
C3754      C4314   1.472       .  S
C3755      H3756   1.110       .  S
C3755      C3761   1.543       .  S
C3755      C3760   1.539       .  S
C3755      C3759   1.558       .  S
C3757      H3758   1.113       .  S
C3757      C3763   1.506       .  S
C3757      C3762   1.489       .  S
C3757      C3764   1.504       .  S
C3759      C3762   1.371       .  D
C3759      C4258   1.479   1_655  S
C3760      C3763   1.374       .  D
C3760      C4272   1.464       .  S
C3761      C3764   1.372       .  D
C3761      C4247   1.475       .  S
C3762      C4205   1.465       .  S
C3763      C4216   1.462       .  S
C3764      C4230   1.460       .  S
C3765      C3766   1.517       .  S
C3765      C3771   1.505       .  S
C3765      C4345   1.477       .  S
C3766      C3767   1.358       .  D
C3766      H3773   1.087       .  S
C3767      C3894   1.527       .  S
C3768      H3774   1.108       .  S
C3768      C3772   1.616       .  S
C3768      C3770   1.512       .  S
C3769      C3770   1.366       .  D
C3769      H3775   1.084       .  S
C3770      C4188   1.480       .  S
C3771      H3776   1.086       .  S
C3772      C3811   1.549       .  S
C3777      C3778   1.541       .  S
C3777      C3783   1.503       .  S
C3777      C3781   1.601       .  S
C3777      C3942   1.560       .  S
C3778      C3779   1.364       .  D
C3778      H3785   1.087       .  S
C3779      C3780   1.513       .  S
C3779      C4275   1.472       .  S
C3780      H3786   1.112       .  S
C3780      C3784   1.534       .  S
C3780      C3782   1.505       .  S
C3781      C3782   1.420       .  D
C3781      H3787   1.084       .  S
C3782      C3815   1.527       .  S
C3783      C3784   1.336       .  D
C3783      H3788   1.088       .  S
C3784      C4177   1.426       .  S
C3789      C3795   1.518       .  S
C3789      C3793   1.557       .  S
C3790      C3791   1.388   1_565  D
C3790      H3797   1.087       .  S
C3791      C4014   1.555   1_545  S
C3792      H3798   1.110       .  S
C3792      C3796   1.637       .  S
C3792      C3794   1.510       .  S
C3793      C3794   1.352       .  D
C3793      H3799   1.086       .  S
C3794      C4160   1.459       .  S
C3795      C3796   1.332       .  D
C3796      C3814   1.601       .  S
O3801     Ni3807   1.924       .  S
O3801      C3822   1.284       .  A
O3802     Ni3825   2.013       .  S
O3802      C3811   1.309       .  A
O3803     Ni3807   1.856       .  S
O3803     Ni3825   1.880       .  S
O3803     Ni3819   1.869       .  S
O3803      H3826   0.967       .  S
C3804      O3813   1.302       .  A
O3805      C3811   1.288       .  A
O3806     Ni3824   1.912       .  S
O3806      C3808   1.266       .  A
Ni3807     O3810   1.926       .  S
Ni3807     O3812   1.938       .  S
C3808      C3911   1.563       .  S
O3809     Ni3825   2.029       .  S
O3809      C3815   1.335       .  A
O3810      C3815   1.285       .  A
O3812      C3814   1.284       .  A
O3813     Ni3824   2.012       .  S
C3814      O3820   1.277       .  A
H3816      O3817   0.965       .  S
O3817     Ni3825   1.955       .  S
O3817     Ni3819   1.898       .  S
O3818     Ni3819   2.011       .  S
Ni3819     O3823   2.025       .  S
O3820     Ni3825   2.020       .  S
C3822      C3973   1.528       .  S
C3822      O3823   1.317       .  A
C3827      H3828   1.112       .  S
C3827      C3833   1.501       .  S
C3827      C3832   1.507       .  S
C3827      C3831   1.521       .  S
C3829      H3830   1.111       .  S
C3829      C3835   1.539       .  S
C3829      C3834   1.545       .  S
C3829      C3836   1.514       .  S
C3831      C3834   1.383       .  D
C3831      C4163   1.497       .  S
C3832      C3835   1.377       .  D
C3832      C4191   1.474       .  S
C3833      C3836   1.357       .  D
C3833      C4174   1.427       .  S
C3834      C4118   1.454       .  S
C3835      C4104   1.463       .  S
C3836      C4135   1.463       .  S
C3837      C3838   1.523   1_556  S
C3837      C3843   1.493       .  S
C3837      C4465   1.546       .  S
C3837      C4359   1.513   1_556  S
C3838      C3839   1.380       .  D
C3838      H3845   1.085       .  S
C3839      C4464   1.604   1_554  S
C3839      C4634   1.551       .  S
C3840      H3846   1.108       .  S
C3840      C4463   1.607       .  S
C3840      C3844   1.603       .  S
C3840      C3842   1.511       .  S
C3841      C4461   1.548       .  S
C3841      C3842   1.362       .  D
C3841      H3847   1.081       .  S
C3842      C4090   1.455       .  S
C3843      C4468   1.334       .  D
C3843      H3848   1.095   1_556  S
C3844      C4467   1.335       .  D
C3844      C3883   1.532       .  S
C3849      C3850   1.542       .  S
C3849      C3855   1.511       .  S
C3849      C3853   1.565       .  S
C3849      C4132   1.513       .  S
C3850      C3851   1.389       .  D
C3850      H3857   1.086       .  S
C3851      C3852   1.601       .  S
C3851      C3956   1.540       .  S
C3852      H3858   1.110       .  S
C3852      C3856   1.597       .  S
C3852      C3854   1.497       .  S
C3853      C3854   1.359       .  D
C3853      H3859   1.084       .  S
C3854      C4076   1.459       .  S
C3855      C3856   1.322       .  D
C3855      H3860   1.092       .  S
C3856      C3887   1.544       .  S
C3861      C3867   1.501       .  S
C3861      C3865   1.550       .  S
C3861      C4244   1.527       .  S
C3862      H3869   1.086       .  S
C3863      C3864   1.626       .  S
C3864      H3870   1.107       .  S
C3864      C3868   1.619       .  S
C3864      C3866   1.504       .  S
C3865      C3866   1.368       .  D
C3865      H3871   1.079       .  S
C3866      C4065   1.476       .  S
C3867      C3868   1.330       .  D
C3867      H3872   1.090       .  S
C3868      C3886   1.570       .  S
O3873     Ni3879   1.932       .  S
O3873      C3894   1.269       .  A
O3874     Ni3897   1.997       .  S
O3874      C3883   1.300       .  A
O3875     Ni3879   1.933       .  S
O3875     Ni3897   1.931       .  S
O3875     Ni3891   1.934       .  S
O3875      H3898   0.966       .  S
C3876      O4517   1.298       .  A
C3876      O3885   1.305   1_556  A
O3877     Ni4520   1.965       .  S
O3877      C3883   1.282       .  A
O3878     Ni3896   1.876   1_554  S
O3878      C3880   1.260       .  A
Ni3879     O3882   1.908       .  S
Ni3879     O3884   1.947       .  S
C3880      C3925   1.541       .  S
C3880      O4514   1.311   1_554  A
O3881     Ni3897   1.982       .  S
O3881      C3887   1.304       .  A
O3882      C3887   1.259       .  A
O3884      C3886   1.291       .  A
O3885     Ni3896   2.009   1_554  S
C3886      O3892   1.293       .  A
H3888      O3889   0.960       .  S
O3889     Ni3897   1.944       .  S
O3889     Ni3891   1.881       .  S
O3889     Ni4520   1.830       .  S
O3890     Ni3891   2.060       .  S
O3890      C4504   1.314       .  A
Ni3891     O3895   1.959       .  S
Ni3891     O3893   1.956       .  S
O3892     Ni3897   2.034       .  S
O3893      C4500   1.299       .  A
C3894      O3895   1.297       .  A
Ni3896     O4501   1.971       .  S
Ni3896     O4513   1.828       .  S
C3899      C3900   1.525       .  S
C3899      C3905   1.499       .  S
C3899      C3903   1.546       .  S
C3899      C4121   1.496       .  S
C3900      C3901   1.365       .  D
C3900      H3907   1.087       .  S
C3901      C3902   1.598       .  S
C3901      C4028   1.537       .  S
C3902      H3908   1.106       .  S
C3902      C3906   1.606       .  S
C3902      C3904   1.515       .  S
C3903      C3904   1.371       .  D
C3903      H3909   1.082       .  S
C3904      C4317   1.472       .  S
C3905      C3906   1.340       .  D
C3905      H3910   1.092       .  S
C3906      C3945   1.540       .  S
C3911      C3912   1.557       .  S
C3911      C3917   1.494       .  S
C3911      C3915   1.595       .  S
C3912      C3913   1.388       .  D
C3912      H3919   1.085       .  S
C3913      C3914   1.522       .  S
C3913      C4051   1.489       .  S
C3914      H3920   1.095       .  S
C3914      C3918   1.525       .  S
C3914      C3916   1.502       .  S
C3915      C3916   1.414       .  D
C3915      H3921   1.084       .  S
C3916      C3949   1.540       .  S
C3917      C3918   1.327       .  D
C3917      H3922   1.090       .  S
C3918      C4300   1.421       .  S
C3923      C3924   1.515       .  S
C3923      C3929   1.527       .  S
C3923      C3927   1.572       .  S
C3923      C4261   1.529       .  S
C3924      C3925   1.385       .  D
C3924      H3931   1.086       .  S
C3925      C3926   1.627       .  S
C3926      H3932   1.110       .  S
C3926      C3930   1.618       .  S
C3926      C3928   1.489       .  S
C3927      C3928   1.366       .  D
C3927      H3933   1.084       .  S
C3928      C4289   1.449       .  S
C3929      C3930   1.335       .  D
C3929      H3934   1.092       .  S
C3930      C3948   1.582       .  S
O3935     Ni3941   1.942       .  S
O3935      C3956   1.286       .  A
O3936     Ni3959   2.014       .  S
O3936      C3945   1.309       .  A
O3937     Ni3941   1.872       .  S
O3937     Ni3959   1.880       .  S
O3937     Ni3953   1.883       .  S
O3937      H3960   0.967       .  S
C3938      C3985   1.557       .  S
C3938      O3955   1.301       .  A
C3938      O3947   1.298       .  A
O3939     Ni3958   1.963       .  S
O3939      C3945   1.284       .  A
O3940     Ni3958   1.918       .  S
O3940      C3942   1.268       .  A
Ni3941     O3944   1.923       .  S
Ni3941     O3946   1.931       .  S
C3942      O3952   1.301       .  A
O3943     Ni3959   2.046       .  S
O3943      C3949   1.338       .  A
O3944      C3949   1.288       .  A
O3946      C3948   1.278       .  A
O3947     Ni3958   2.001       .  S
C3948      O3954   1.271       .  A
H3950      O3951   0.964       .  S
O3951     Ni3959   1.953       .  S
O3951     Ni3953   1.895       .  S
O3951     Ni3958   1.867       .  S
O3952     Ni3953   1.991       .  S
Ni3953     O3957   2.025       .  S
Ni3953     O3955   1.967       .  S
O3954     Ni3959   2.008       .  S
C3956      O3957   1.316       .  A
C3961      H3962   1.104   1_565  S
C3961      C3967   1.547       .  S
C3961      C3966   1.532   1_565  S
C3961      C3965   1.544       .  S
C3963      H3964   1.115       .  S
C3963      C3969   1.509       .  S
C3963      C3968   1.499       .  S
C3963      C3970   1.494       .  S
C3965      C3968   1.380       .  D
C3965      C4149   1.480       .  S
C3966      C3969   1.370   1_545  D
C3966      C4048   1.463       .  S
C3967      C3970   1.370       .  D
C3967      C4037   1.476       .  S
C3968      C4093   1.457       .  S
C3969      C4062   1.462       .  S
C3970      C4079   1.463       .  S
C3971      C3972   1.544       .  S
C3971      C3977   1.513       .  S
C3971      C4328   1.511       .  S
C3972      C3973   1.384       .  D
C3972      H3979   1.086       .  S
C3974      H3980   1.109       .  S
C3974      C3978   1.578       .  S
C3974      C3976   1.505       .  S
C3975      C3976   1.363       .  D
C3975      H3981   1.074       .  S
C3976      C4233   1.455       .  S
C3977      H3982   1.093       .  S
C3978      C4021   1.527       .  S
C3983      C3984   1.521       .  S
C3983      C3989   1.505       .  S
C3983      C3987   1.574       .  S
C3983      C4034   1.512       .  S
C3984      C3985   1.389       .  D
C3984      H3991   1.084       .  S
C3985      C3986   1.629       .  S
C3986      H3992   1.103       .  S
C3986      C3990   1.634       .  S
C3986      C3988   1.508       .  S
C3987      C3988   1.365       .  D
C3987      H3993   1.082       .  S
C3988      C4219   1.495       .  S
C3989      C3990   1.324       .  D
C3989      H3994   1.091       .  S
C3990      C4020   1.586       .  S
C3995      C4620   1.534   1_554  S
C3995      C4001   1.493       .  S
C3995      C3999   1.525       .  S
C3995      C4731   1.504   1_554  S
C3996      C4619   1.535       .  S
C3996      C4621   1.385       .  D
C3996      H4003   1.087       .  S
C3997      C3998   1.593       .  S
C3997      C4620   1.385   1_554  D
C3998      H4004   1.109       .  S
C3998      C4002   1.601       .  S
C3998      C4000   1.536       .  S
C3999      C4000   1.361       .  D
C3999      H4005   1.077       .  S
C4000      C4202   1.461       .  S
C4001      C4002   1.324       .  D
C4001      H4630   1.096       .  S
C4002      C4017   1.517       .  S
H4006      C4625   1.095       .  S
O4007      C4028   1.274       .  A
O4008     Ni4031   1.972       .  S
O4008      C4017   1.292       .  A
O4009     Ni4013   1.937       .  S
O4009     Ni4031   1.931       .  S
O4009     Ni4025   1.936       .  S
O4009      H4032   0.966       .  S
C4010      C4463   1.549       .  S
C4010      O4651   1.303       .  A
C4010      O4019   1.302       .  A
O4011     Ni4030   1.973       .  S
O4011      C4017   1.285       .  A
O4012     Ni4654   1.888       .  S
O4012      C4014   1.266       .  A
Ni4013     O4016   1.906       .  S
Ni4013     O4018   1.958       .  S
C4014      O4648   1.308       .  A
O4015     Ni4031   1.955       .  S
O4015      C4021   1.295       .  A
O4016      C4021   1.259       .  A
O4018      C4020   1.300       .  A
O4019     Ni4654   2.005       .  S
C4020      O4026   1.291       .  A
H4022      O4023   0.962       .  S
O4023     Ni4031   1.935       .  S
O4023     Ni4025   1.891       .  S
O4023     Ni4030   1.839       .  S
O4024     Ni4025   2.059       .  S
O4024      C4638   1.310   1_554  A
Ni4025     O4027   1.957       .  S
O4026     Ni4031   2.028       .  S
O4027      C4634   1.301       .  A
C4028      O4029   1.295       .  A
Ni4030     O4636   1.892   1_554  S
Ni4030     O4643   2.010       .  S
C4033      C4034   1.421       .  A
C4033      C4038   1.379       .  A
C4033      H4040   1.082       .  S
C4034      C4035   1.418       .  A
C4035      C4036   1.402       .  A
C4035      N4042   1.431       .  S
C4036      C4037   1.411       .  A
C4036      H4041   1.084       .  S
C4037      C4038   1.392       .  A
C4038      N4039   1.431       .  S
N4039      H4043   1.046       .  S
N4039      H4044   1.046       .  S
N4042      H4045   1.044       .  S
N4042      H4046   1.045       .  S
C4047      C4052   1.390       .  A
C4047      H4054   1.085       .  S
C4048      C4049   1.398       .  A
C4049      N4056   1.432       .  S
C4050      C4051   1.409       .  A
C4050      H4055   1.082       .  S
C4051      C4052   1.428       .  A
C4052      N4053   1.428       .  S
N4053      H4057   1.046       .  S
N4053      H4058   1.045       .  S
N4056      H4059   1.045       .  S
N4056      H4060   1.045       .  S
C4061      C4062   1.401       .  A
C4061      C4066   1.397       .  A
C4061      H4068   1.084       .  S
C4062      C4063   1.408       .  A
C4063      C4064   1.391       .  A
C4063      N4070   1.433       .  S
C4064      C4065   1.403       .  A
C4064      H4069   1.083       .  S
C4065      C4066   1.410       .  A
C4066      N4067   1.433       .  S
N4067      H4071   1.046       .  S
N4067      H4072   1.046       .  S
N4070      H4073   1.044   1_565  S
N4070      H4074   1.044       .  S
C4075      C4076   1.402       .  A
C4075      C4080   1.385       .  A
C4075      H4082   1.082       .  S
C4076      C4077   1.411       .  A
C4077      C4078   1.389       .  A
C4077      N4084   1.437       .  S
C4078      C4079   1.403       .  A
C4078      H4083   1.083       .  S
C4079      C4080   1.395       .  A
C4080      N4081   1.429       .  S
N4081      H4085   1.045       .  S
N4081      H4086   1.044       .  S
N4084      H4087   1.044       .  S
N4084      H4088   1.045       .  S
C4089      C4090   1.403       .  A
C4089      C4094   1.393       .  A
C4089      H4096   1.083       .  S
C4090      C4091   1.410       .  A
C4091      C4092   1.381       .  A
C4091      N4098   1.438       .  S
C4092      C4093   1.397       .  A
C4092      H4097   1.083       .  S
C4093      C4094   1.400       .  A
C4094      N4095   1.435       .  S
N4095      H4099   1.043       .  S
N4095      H4100   1.045       .  S
N4098      H4101   1.044       .  S
C4103      C4104   1.385       .  A
C4103      C4732   1.386       .  A
C4103      H4734   1.083       .  S
C4104      C4105   1.402       .  A
C4105      C4106   1.394       .  A
C4105      N4112   1.434       .  S
C4106      C4107   1.418       .  A
C4106      H4111   1.084       .  S
C4107      C4619   1.511       .  S
C4107      C4732   1.437       .  A
C4108      C4727   1.382       .  A
C4108      C4731   1.438   1_554  A
C4108      N4109   1.432       .  S
N4109      H4113   1.046       .  S
N4109      H4114   1.046       .  S
H4110      C4727   1.083       .  S
N4112      H4115   1.044       .  S
N4112      H4116   1.045       .  S
C4117      C4742   1.394       .  A
C4117      C4122   1.381       .  A
C4117      H4124   1.080       .  S
C4118      C4741   1.395       .  A
C4118      C4119   1.403       .  A
C4119      C4744   1.386       .  A
C4119      N4126   1.434       .  S
C4120      C4743   1.388       .  A
C4120      C4121   1.410       .  A
C4120      H4125   1.082       .  S
C4121      C4122   1.422       .  A
C4122      N4123   1.441       .  S
N4123      H4127   1.046       .  S
N4123      H4128   1.045       .  S
N4126      H4129   1.045       .  S
N4126      H4130   1.042       .  S
C4131      C4132   1.422       .  A
C4131      C4136   1.384       .  A
C4131      H4138   1.078       .  S
C4132      C4133   1.414       .  A
C4133      C4134   1.411       .  A
C4133      N4140   1.432       .  S
C4134      C4135   1.411       .  A
C4134      H4139   1.083       .  S
C4135      C4136   1.383       .  A
C4136      N4137   1.431       .  S
N4137      H4141   1.046       .  S
N4137      H4142   1.044       .  S
N4140      H4143   1.046       .  S
N4140      H4144   1.045       .  S
C4145      C4146   1.416   1_545  A
C4145      C4150   1.391       .  A
C4146      C4147   1.416       .  A
C4147      C4148   1.402       .  A
C4147      N4154   1.432       .  S
C4148      C4149   1.406       .  A
C4148      H4153   1.084       .  S
C4149      C4150   1.403   1_565  A
C4150      N4151   1.437       .  S
N4151      H4155   1.046       .  S
N4151      H4156   1.045       .  S
N4154      H4157   1.046       .  S
N4154      H4158   1.046       .  S
C4159      C4160   1.388       .  A
C4159      C4164   1.391       .  A
C4159      H4166   1.082       .  S
C4160      C4161   1.405       .  A
C4161      C4162   1.402       .  A
C4161      N4168   1.438       .  S
C4162      C4163   1.410       .  A
C4162      H4167   1.077       .  S
C4163      C4164   1.406       .  A
C4164      N4165   1.421       .  S
N4165      H4169   1.045       .  S
N4165      H4170   1.039       .  S
N4168      H4171   1.045       .  S
N4168      H4172   1.046       .  S
C4173      C4174   1.400       .  A
C4173      C4178   1.381       .  A
C4173      H4180   1.080       .  S
C4174      C4175   1.396       .  A
C4175      C4176   1.380       .  A
C4175      N4182   1.439       .  S
C4176      C4177   1.404       .  A
C4176      H4181   1.084       .  S
C4177      C4178   1.390       .  A
C4178      N4179   1.438       .  S
N4179      H4183   1.045       .  S
N4179      H4184   1.046       .  S
N4182      H4185   1.046       .  S
N4182      H4186   1.045       .  S
C4187      C4188   1.406       .  A
C4187      C4192   1.403       .  A
C4187      H4194   1.081       .  S
C4188      C4189   1.416       .  A
C4189      C4190   1.378       .  A
C4189      N4196   1.437       .  S
C4190      C4191   1.398       .  A
C4190      H4195   1.079       .  S
C4191      C4192   1.401       .  A
C4192      N4193   1.435       .  S
N4193      H4197   1.042       .  S
N4193      H4198   1.044       .  S
N4196      H4199   1.043       .  S
N4196      H4200   1.045       .  S
C4201      C4202   1.399       .  A
C4201      C4206   1.384       .  A
C4201      H4208   1.082       .  S
C4202      C4203   1.418       .  A
C4203      C4204   1.388       .  A
C4203      N4210   1.438       .  S
C4204      C4205   1.397       .  A
C4204      H4209   1.082       .  S
C4205      C4206   1.400       .  A
C4206      N4207   1.426       .  S
N4207      H4211   1.046       .  S
N4207      H4212   1.045       .  S
N4210      H4213   1.044       .  S
N4210      H4214   1.045       .  S
C4215      C4216   1.398       .  A
C4215      C4220   1.396       .  A
C4215      H4222   1.079       .  S
C4216      C4217   1.406       .  A
C4217      C4218   1.390       .  A
C4217      N4224   1.437       .  S
C4218      C4219   1.407       .  A
C4218      H4223   1.077       .  S
C4219      C4220   1.419       .  A
C4220      N4221   1.432       .  S
N4221      H4225   1.046       .  S
N4221      H4226   1.046       .  S
N4224      H4227   1.043       .  S
N4224      H4228   1.045       .  S
C4229      C4230   1.402       .  A
C4229      C4234   1.385       .  A
C4229      H4236   1.080       .  S
C4230      C4231   1.394       .  A
C4231      C4232   1.384       .  A
C4231      N4238   1.429       .  S
C4232      C4233   1.405       .  A
C4232      H4237   1.081       .  S
C4233      C4234   1.403       .  A
C4234      N4235   1.438       .  S
N4235      H4240   1.046       .  S
N4238      H4241   1.045       .  S
N4238      H4242   1.045       .  S
C4243      C4248   1.399       .  A
C4243      H4250   1.084       .  S
C4244      C4245   1.445       .  A
C4245      C4246   1.390       .  A
C4245      N4252   1.430       .  S
C4246      H4251   1.084       .  S
C4247      C4248   1.406       .  A
C4248      N4249   1.432       .  S
N4249      H4253   1.044       .  S
N4249      H4254   1.045       .  S
N4252      H4255   1.042       .  S
N4252      H4256   1.042       .  S
C4257      C4262   1.404       .  A
C4257      H4264   1.085       .  S
C4258      C4259   1.396       .  A
C4259      N4266   1.430       .  S
C4260      C4261   1.419       .  A
C4260      H4265   1.078       .  S
C4261      C4262   1.417       .  A
C4262      N4263   1.432       .  S
N4263      H4267   1.046       .  S
N4263      H4268   1.045       .  S
N4266      H4269   1.045   1_455  S
N4266      H4270   1.044       .  S
C4271      C4272   1.406       .  A
C4271      C4276   1.399       .  A
C4271      H4278   1.084       .  S
C4272      C4273   1.401       .  A
C4273      C4274   1.391       .  A
C4273      N4280   1.431       .  S
C4274      C4275   1.405       .  A
C4274      H4279   1.082       .  S
C4275      C4276   1.397       .  A
C4276      N4277   1.425       .  S
N4277      H4281   1.044       .  S
N4277      H4282   1.046       .  S
N4280      H4283   1.045       .  S
N4280      H4284   1.045       .  S
C4285      C4286   1.405       .  A
C4285      C4290   1.399       .  A
C4285      H4292   1.081       .  S
C4286      C4287   1.417       .  A
C4287      C4288   1.382       .  A
C4287      N4294   1.429       .  S
C4288      C4289   1.386       .  A
C4288      H4293   1.082       .  S
C4289      C4290   1.413       .  A
C4290      N4291   1.431       .  S
N4291      H4295   1.043       .  S
N4291      H4296   1.046       .  S
N4294      H4297   1.046       .  S
N4294      H4298   1.046       .  S
C4299      C4300   1.387       .  A
C4299      C4304   1.372       .  A
C4299      H4306   1.085       .  S
C4300      C4301   1.397       .  A
C4301      C4302   1.390       .  A
C4301      N4308   1.432       .  S
C4302      C4303   1.402       .  A
C4302      H4307   1.084       .  S
C4303      C4304   1.400       .  A
C4304      N4305   1.423       .  S
N4305      H4310   1.047       .  S
N4308      H4311   1.044       .  S
N4308      H4312   1.045       .  S
C4313      C4314   1.401       .  A
C4313      C4318   1.384       .  A
C4313      H4320   1.078       .  S
C4314      C4315   1.405       .  A
C4315      C4316   1.390       .  A
C4315      N4322   1.436       .  S
C4316      C4317   1.407       .  A
C4316      H4321   1.078       .  S
C4317      C4318   1.409       .  A
C4318      N4319   1.438       .  S
N4319      H4323   1.046       .  S
N4319      H4324   1.046       .  S
N4322      H4325   1.044       .  S
N4322      H4326   1.045       .  S
C4327      C4328   1.412       .  A
C4327      H4334   1.084       .  S
C4329      N4336   1.433       .  S
C4330      C4331   1.378       .  A
C4331      C4332   1.399       .  A
C4332      N4333   1.430       .  S
N4333      H4337   1.045       .  S
N4333      H4338   1.045       .  S
N4336      H4339   1.042       .  S
N4336      H4340   1.043       .  S
C4341      C4966   1.400       .  A
C4341      C4346   1.378       .  A
C4341      H4348   1.073       .  S
C4342      C4965   1.400   1_554  A
C4342      C4343   1.418       .  A
C4343      C4968   1.378   1_554  A
C4343      N4350   1.424       .  S
C4344      C4967   1.380       .  A
C4344      C4345   1.389       .  A
C4344      H4973   1.084       .  S
C4345      C4346   1.407       .  A
C4346      N4347   1.440       .  S
N4347      H4351   1.046       .  S
N4347      H4352   1.045       .  S
H4349      C4968   1.084       .  S
N4350      H4353   1.042       .  S
N4350      H4354   1.044       .  S
C4355      C4360   1.391       .  A
C4355      H4362   1.085       .  S
C4356      C4357   1.405   1_554  A
C4357      N4988   1.427       .  S
C4358      C4983   1.413       .  A
C4358      H4363   1.075       .  S
C4359      C4982   1.414   1_554  A
C4359      C4360   1.426       .  A
C4360      N4361   1.434       .  S
N4361      H4365   1.044       .  S
N4361      H4366   1.043       .  S
N4364      C4981   1.424       .  S
N4364      H4367   1.040       .  S
N4364      H4368   1.044       .  S
C4369      H4370   1.104       .  S
C4369      C4375   1.542       .  S
C4369      C4374   1.502       .  S
C4369      C4373   1.552       .  S
C4371      H4372   1.096       .  S
C4371      C4377   1.512       .  S
C4371      C4376   1.523       .  S
C4371      C4378   1.492       .  S
C4373      C4376   1.392       .  D
C4373      C4966   1.468       .  S
C4374      C4377   1.355       .  D
C4374      C4955   1.458       .  S
C4375      C4378   1.372       .  D
C4375      C4980   1.476       .  S
C4376      C4910   1.506       .  S
C4377      C4927   1.438       .  S
C4378      C4938   1.473       .  S
C4379      H4380   1.110       .  S
C4379      C4385   1.540       .  S
C4379      C4384   1.539       .  S
C4379      C4383   1.560       .  S
C4381      H4382   1.113       .  S
C4381      C4387   1.507       .  S
C4381      C4386   1.489       .  S
C4381      C4388   1.506       .  S
C4383      C4386   1.372       .  D
C4383      C4882   1.476   1_655  S
C4384      C4387   1.374       .  D
C4384      C4896   1.467       .  S
C4385      C4388   1.372       .  D
C4385      C4871   1.475       .  S
C4386      C4829   1.470       .  S
C4387      C4840   1.463       .  S
C4388      C4854   1.457       .  S
C4389      C4390   1.522       .  S
C4389      C4395   1.506       .  S
C4389      C4969   1.476       .  S
C4390      C4391   1.359       .  D
C4390      H4397   1.086       .  S
C4391      C4518   1.529       .  S
C4392      H4398   1.107       .  S
C4392      C4396   1.619       .  S
C4392      C4394   1.510       .  S
C4393      C4394   1.365       .  D
C4393      H4399   1.084       .  S
C4394      C4812   1.478       .  S
C4395      H4400   1.086       .  S
C4396      C4435   1.556       .  S
C4401      C4402   1.541       .  S
C4401      C4407   1.505       .  S
C4401      C4405   1.598       .  S
C4401      C4566   1.557       .  S
C4402      C4403   1.363       .  D
C4402      H4409   1.087       .  S
C4403      C4404   1.512       .  S
C4403      C4899   1.471       .  S
C4404      H4410   1.112       .  S
C4404      C4408   1.533       .  S
C4404      C4406   1.504       .  S
C4405      C4406   1.419       .  D
C4405      H4411   1.085       .  S
C4406      C4439   1.521       .  S
C4407      C4408   1.336       .  D
C4407      H4412   1.088       .  S
C4408      C4801   1.425       .  S
C4413      C4419   1.518       .  S
C4413      C4417   1.561       .  S
C4414      C4415   1.389   1_565  D
C4414      H4421   1.087       .  S
C4415      C4638   1.562   1_545  S
C4416      H4422   1.110       .  S
C4416      C4420   1.635       .  S
C4416      C4418   1.510       .  S
C4417      C4418   1.353       .  D
C4417      H4423   1.085       .  S
C4418      C4784   1.463       .  S
C4419      C4420   1.331       .  D
C4420      C4438   1.598       .  S
O4425     Ni4431   1.920       .  S
O4425      C4446   1.282       .  A
O4426     Ni4449   2.017       .  S
O4426      C4435   1.309       .  A
O4427     Ni4431   1.857       .  S
O4427     Ni4449   1.878       .  S
O4427     Ni4443   1.869       .  S
O4427      H4450   0.967       .  S
C4428      O4437   1.302       .  A
O4429      C4435   1.289   1_455  A
O4430     Ni4448   1.907       .  S
O4430      C4432   1.265       .  A
Ni4431     O4434   1.919       .  S
Ni4431     O4436   1.934       .  S
C4432      C4535   1.564       .  S
O4433     Ni4449   2.028       .  S
O4433      C4439   1.335       .  A
O4434      C4439   1.284       .  A
O4436      C4438   1.284       .  A
O4437     Ni4448   2.013       .  S
C4438      O4444   1.277       .  A
H4440      O4441   0.965       .  S
O4441     Ni4449   1.955       .  S
O4441     Ni4443   1.897       .  S
O4442     Ni4443   2.008       .  S
Ni4443     O4447   2.022       .  S
O4444     Ni4449   2.017       .  S
C4446      C4597   1.524       .  S
C4446      O4447   1.316       .  A
C4451      H4452   1.112       .  S
C4451      C4457   1.502       .  S
C4451      C4456   1.510       .  S
C4451      C4455   1.521       .  S
C4453      H4454   1.111       .  S
C4453      C4459   1.531       .  S
C4453      C4458   1.545       .  S
C4453      C4460   1.508       .  S
C4455      C4458   1.383       .  D
C4455      C4787   1.497       .  S
C4456      C4459   1.376       .  D
C4456      C4815   1.471       .  S
C4457      C4460   1.359       .  D
C4457      C4798   1.427       .  S
C4458      C4742   1.452   1_556  S
C4459      C4728   1.459       .  S
C4460      C4759   1.462       .  S
C4461      C4462   1.519       .  S
C4461      C4467   1.495       .  S
C4461      C4983   1.509       .  S
C4462      C4463   1.377       .  D
C4462      H4469   1.085       .  S
C4464      H4470   1.109       .  S
C4464      C4468   1.604       .  S
C4464      C4466   1.513       .  S
C4465      C4466   1.362       .  D
C4465      H4471   1.080       .  S
C4466      C4714   1.456       .  S
C4467      H4472   1.094       .  S
C4468      C4507   1.530       .  S
C4473      C4474   1.538       .  S
C4473      C4479   1.511       .  S
C4473      C4477   1.564       .  S
C4473      C4756   1.505       .  S
C4474      C4475   1.384       .  D
C4474      H4481   1.086       .  S
C4475      C4476   1.599       .  S
C4475      C4580   1.530       .  S
C4476      H4482   1.110       .  S
C4476      C4480   1.593       .  S
C4476      C4478   1.499       .  S
C4477      C4478   1.361       .  D
C4477      H4483   1.084       .  S
C4478      C4700   1.461       .  S
C4479      C4480   1.323       .  D
C4479      H4484   1.093       .  S
C4480      C4511   1.538       .  S
C4485      C4491   1.498       .  S
C4485      C4489   1.550       .  S
C4485      C4868   1.527       .  S
C4486      H4493   1.086       .  S
C4487      C4488   1.625       .  S
C4488      H4494   1.105       .  S
C4488      C4492   1.621       .  S
C4488      C4490   1.506       .  S
C4489      C4490   1.371       .  D
C4489      H4495   1.078       .  S
C4490      C4689   1.482       .  S
C4491      C4492   1.330       .  D
C4491      H4496   1.090       .  S
C4492      C4510   1.570       .  S
O4497     Ni4503   1.936       .  S
O4497      C4518   1.270       .  A
O4498     Ni4521   1.989       .  S
O4498      C4507   1.297       .  A
O4499     Ni4503   1.930       .  S
O4499     Ni4521   1.934       .  S
O4499     Ni4515   1.931       .  S
O4499      H4522   0.967       .  S
C4500      O4509   1.304       .  A
O4501      C4507   1.284       .  A
O4502     Ni4520   1.880       .  S
O4502      C4504   1.261       .  A
Ni4503     O4506   1.908       .  S
Ni4503     O4508   1.948       .  S
C4504      C4549   1.548       .  S
O4505     Ni4521   1.972       .  S
O4505      C4511   1.301       .  A
O4506      C4511   1.259       .  A
O4508      C4510   1.292       .  A
O4509     Ni4520   2.006       .  S
C4510      O4516   1.292       .  A
H4512      O4513   0.958       .  S
O4513     Ni4521   1.940       .  S
O4513     Ni4515   1.884       .  S
O4514     Ni4515   2.052       .  S
Ni4515     O4519   1.962       .  S
Ni4515     O4517   1.955       .  S
O4516     Ni4521   2.032       .  S
C4518      O4519   1.297       .  A
C4523      C4524   1.529       .  S
C4523      C4529   1.498       .  S
C4523      C4527   1.542       .  S
C4523      C4745   1.501       .  S
C4524      C4525   1.364       .  D
C4524      H4531   1.087       .  S
C4525      C4526   1.597       .  S
C4525      C4652   1.541       .  S
C4526      H4532   1.107       .  S
C4526      C4530   1.609       .  S
C4526      C4528   1.517       .  S
C4527      C4528   1.374       .  D
C4527      H4533   1.082       .  S
C4528      C4941   1.471       .  S
C4529      C4530   1.338       .  D
C4529      H4534   1.092       .  S
C4530      C4569   1.537       .  S
C4535      C4536   1.559       .  S
C4535      C4541   1.493       .  S
C4535      C4539   1.598       .  S
C4536      C4537   1.387       .  D
C4536      H4543   1.085       .  S
C4537      C4538   1.519       .  S
C4537      C4675   1.484       .  S
C4538      H4544   1.097       .  S
C4538      C4542   1.518       .  S
C4538      C4540   1.503       .  S
C4539      C4540   1.415       .  D
C4539      H4545   1.083       .  S
C4540      C4573   1.544       .  S
C4541      C4542   1.325       .  D
C4541      H4546   1.090       .  S
C4542      C4924   1.414       .  S
C4547      C4548   1.515       .  S
C4547      C4553   1.524       .  S
C4547      C4551   1.575       .  S
C4547      C4885   1.532       .  S
C4548      C4549   1.386       .  D
C4548      H4555   1.085       .  S
C4549      C4550   1.640       .  S
C4550      H4556   1.110       .  S
C4550      C4554   1.623       .  S
C4550      C4552   1.488       .  S
C4551      C4552   1.369       .  D
C4551      H4557   1.084       .  S
C4552      C4913   1.455       .  S
C4553      C4554   1.331       .  D
C4553      H4558   1.091       .  S
C4554      C4572   1.593       .  S
O4559     Ni4565   1.920       .  S
O4559      C4580   1.285       .  A
O4560     Ni4583   2.007       .  S
O4560      C4569   1.307       .  A
O4561     Ni4565   1.855       .  S
O4561     Ni4583   1.883       .  S
O4561     Ni4577   1.867       .  S
O4561      H4584   0.967       .  S
C4562      C4609   1.554       .  S
C4562      O4579   1.300       .  A
C4562      O4571   1.297       .  A
O4563     Ni4582   1.967       .  S
O4563      C4569   1.284       .  A
O4564     Ni4582   1.921       .  S
O4564      C4566   1.268       .  A
Ni4565     O4568   1.946       .  S
Ni4565     O4570   1.917       .  S
C4566      O4576   1.299       .  A
O4567     Ni4583   2.023       .  S
O4567      C4573   1.332       .  A
O4568      C4573   1.290       .  A
O4570      C4572   1.280       .  A
O4571     Ni4582   2.000       .  S
C4572      O4578   1.277       .  A
H4574      O4575   0.964       .  S
O4575     Ni4583   1.946       .  S
O4575     Ni4577   1.903       .  S
O4575     Ni4582   1.869       .  S
O4576     Ni4577   1.986       .  S
Ni4577     O4581   2.033       .  S
Ni4577     O4579   1.962       .  S
O4578     Ni4583   2.013       .  S
C4580      O4581   1.320       .  A
C4585      H4586   1.105   1_565  S
C4585      C4591   1.545       .  S
C4585      C4590   1.534   1_565  S
C4585      C4589   1.542       .  S
C4587      H4588   1.115       .  S
C4587      C4593   1.509       .  S
C4587      C4592   1.499       .  S
C4587      C4594   1.496       .  S
C4589      C4592   1.378       .  D
C4589      C4773   1.476       .  S
C4590      C4593   1.371   1_545  D
C4590      C4672   1.465       .  S
C4591      C4594   1.373       .  D
C4591      C4661   1.473       .  S
C4592      C4717   1.455       .  S
C4593      C4686   1.463       .  S
C4594      C4703   1.467       .  S
C4595      C4596   1.543       .  S
C4595      C4601   1.514       .  S
C4595      C4952   1.510       .  S
C4596      C4597   1.384       .  D
C4596      H4603   1.086       .  S
C4598      H4604   1.109       .  S
C4598      C4602   1.581       .  S
C4598      C4600   1.504       .  S
C4599      C4600   1.363       .  D
C4599      H4605   1.074       .  S
C4600      C4857   1.454       .  S
C4601      H4606   1.093       .  S
C4602      C4645   1.530       .  S
C4607      C4608   1.520       .  S
C4607      C4613   1.505       .  S
C4607      C4611   1.570       .  S
C4607      C4658   1.511       .  S
C4608      C4609   1.387       .  D
C4608      H4615   1.084       .  S
C4609      C4610   1.628       .  S
C4610      H4616   1.105       .  S
C4610      C4614   1.632       .  S
C4610      C4612   1.504       .  S
C4611      C4612   1.364       .  D
C4611      H4617   1.083       .  S
C4612      C4843   1.488       .  S
C4613      C4614   1.325       .  D
C4613      H4618   1.090       .  S
C4614      C4644   1.583       .  S
C4619      C4625   1.494       .  S
C4619      C4623   1.532       .  S
C4620      H4627   1.087       .  S
C4621      C4622   1.595       .  S
C4622      H4628   1.110       .  S
C4622      C4626   1.600       .  S
C4622      C4624   1.530       .  S
C4623      C4624   1.364       .  D
C4623      H4629   1.077       .  S
C4624      C4826   1.464       .  S
C4625      C4626   1.326       .  D
C4626      C4641   1.517       .  S
O4631      C4652   1.275       .  A
O4632     Ni4655   1.977       .  S
O4632      C4641   1.294       .  A
O4633     Ni4637   1.935       .  S
O4633     Ni4655   1.930       .  S
O4633     Ni4649   1.935       .  S
O4633      H4656   0.966       .  S
C4634      O4643   1.304       .  A
O4635     Ni4654   1.968       .  S
O4635      C4641   1.283       .  A
O4636      C4638   1.266       .  A
Ni4637     O4640   1.909       .  S
Ni4637     O4642   1.957       .  S
O4639     Ni4655   1.957       .  S
O4639      C4645   1.296       .  A
O4640      C4645   1.261       .  A
O4642      C4644   1.298       .  A
C4644      O4650   1.291       .  A
H4646      O4647   0.961       .  S
O4647     Ni4655   1.935       .  S
O4647     Ni4649   1.891       .  S
O4647     Ni4654   1.839       .  S
O4648     Ni4649   2.053       .  S
Ni4649     O4651   1.961       .  S
O4650     Ni4655   2.026       .  S
C4652      O4653   1.297       .  A
C4657      C4658   1.421       .  A
C4657      C4662   1.381       .  A
C4657      H4664   1.081       .  S
C4658      C4659   1.420       .  A
C4659      C4660   1.399       .  A
C4659      N4666   1.431       .  S
C4660      C4661   1.408       .  A
C4660      H4665   1.085       .  S
C4661      C4662   1.394       .  A
C4662      N4663   1.432       .  S
N4663      H4667   1.046       .  S
N4663      H4668   1.046       .  S
N4666      H4669   1.044       .  S
N4666      H4670   1.044       .  S
C4671      C4676   1.388       .  A
C4671      H4678   1.085       .  S
C4672      C4673   1.400       .  A
C4673      N4680   1.432       .  S
C4674      C4675   1.408       .  A
C4674      H4679   1.083       .  S
C4675      C4676   1.427       .  A
C4676      N4677   1.429       .  S
N4677      H4681   1.046       .  S
N4677      H4682   1.045       .  S
N4680      H4683   1.045       .  S
N4680      H4684   1.046       .  S
C4685      C4686   1.400       .  A
C4685      C4690   1.398       .  A
C4685      H4692   1.085       .  S
C4686      C4687   1.408       .  A
C4687      C4688   1.391       .  A
C4687      N4694   1.433       .  S
C4688      C4689   1.404       .  A
C4688      H4693   1.082       .  S
C4689      C4690   1.412       .  A
C4690      N4691   1.432       .  S
N4691      H4695   1.046       .  S
N4691      H4696   1.046       .  S
N4694      H4697   1.044   1_565  S
N4694      H4698   1.044       .  S
C4699      C4700   1.401       .  A
C4699      C4704   1.386       .  A
C4699      H4706   1.082       .  S
C4700      C4701   1.410       .  A
C4701      C4702   1.390       .  A
C4701      N4708   1.438       .  S
C4702      C4703   1.404       .  A
C4702      H4707   1.082       .  S
C4703      C4704   1.396       .  A
C4704      N4705   1.428       .  S
N4705      H4709   1.045       .  S
N4705      H4710   1.045       .  S
N4708      H4711   1.044       .  S
N4708      H4712   1.045       .  S
C4713      C4714   1.401       .  A
C4713      C4718   1.392       .  A
C4713      H4720   1.083       .  S
C4714      C4715   1.412       .  A
C4715      C4716   1.382       .  A
C4715      N4722   1.438       .  S
C4716      C4717   1.396       .  A
C4716      H4721   1.083       .  S
C4717      C4718   1.401       .  A
C4718      N4719   1.434       .  S
N4719      H4723   1.044       .  S
N4719      H4724   1.045       .  S
N4722      H4725   1.044       .  S
C4727      C4728   1.385   1_554  A
C4728      C4729   1.399       .  A
C4729      C4730   1.391       .  A
C4729      N4736   1.433       .  S
C4730      C4731   1.417       .  A
C4730      H4735   1.083       .  S
C4732      N4733   1.431       .  S
N4733      H4737   1.046       .  S
N4733      H4738   1.046       .  S
N4736      H4739   1.044       .  S
N4736      H4740   1.045       .  S
C4741      C4746   1.387       .  A
C4741      H4748   1.080       .  S
C4742      C4743   1.404       .  A
C4743      N4750   1.434       .  S
C4744      C4745   1.412       .  A
C4744      H4749   1.082       .  S
C4745      C4746   1.422       .  A
C4746      N4747   1.440       .  S
N4747      H4751   1.046       .  S
N4747      H4752   1.045       .  S
N4750      H4753   1.045       .  S
N4750      H4754   1.042   1_554  S
C4755      C4756   1.422       .  A
C4755      C4760   1.385       .  A
C4755      H4762   1.080       .  S
C4756      C4757   1.414       .  A
C4757      C4758   1.407       .  A
C4757      N4764   1.433       .  S
C4758      C4759   1.407       .  A
C4758      H4763   1.083       .  S
C4759      C4760   1.384       .  A
C4760      N4761   1.431       .  S
N4761      H4765   1.046       .  S
N4761      H4766   1.045       .  S
N4764      H4767   1.045       .  S
N4764      H4768   1.044       .  S
C4769      C4770   1.418   1_545  A
C4769      C4774   1.389       .  A
C4770      C4771   1.414       .  A
C4771      C4772   1.402       .  A
C4771      N4778   1.432       .  S
C4772      C4773   1.406       .  A
C4772      H4777   1.084       .  S
C4773      C4774   1.399   1_565  A
C4774      N4775   1.437       .  S
N4775      H4779   1.046       .  S
N4775      H4780   1.046       .  S
N4778      H4781   1.046       .  S
N4778      H4782   1.046       .  S
C4783      C4784   1.389       .  A
C4783      C4788   1.391       .  A
C4783      H4790   1.082       .  S
C4784      C4785   1.406       .  A
C4785      C4786   1.405       .  A
C4785      N4792   1.438       .  S
C4786      C4787   1.410       .  A
C4786      H4791   1.079       .  S
C4787      C4788   1.406       .  A
C4788      N4789   1.422       .  S
N4789      H4793   1.046       .  S
N4789      H4794   1.041       .  S
N4792      H4795   1.045       .  S
N4792      H4796   1.046       .  S
C4797      C4798   1.401       .  A
C4797      C4802   1.382       .  A
C4797      H4804   1.079       .  S
C4798      C4799   1.397       .  A
C4799      C4800   1.379       .  A
C4799      N4806   1.439       .  S
C4800      C4801   1.402       .  A
C4800      H4805   1.084       .  S
C4801      C4802   1.390       .  A
C4802      N4803   1.438       .  S
N4803      H4807   1.045       .  S
N4803      H4808   1.046       .  S
N4806      H4809   1.046       .  S
N4806      H4810   1.045       .  S
C4811      C4812   1.407       .  A
C4811      C4816   1.400       .  A
C4811      H4818   1.080       .  S
C4812      C4813   1.418       .  A
C4813      C4814   1.378       .  A
C4813      N4820   1.436       .  S
C4814      C4815   1.398       .  A
C4814      H4819   1.079       .  S
C4815      C4816   1.398       .  A
C4816      N4817   1.435       .  S
N4817      H4821   1.042       .  S
N4817      H4822   1.044       .  S
N4820      H4823   1.043       .  S
N4820      H4824   1.045       .  S
C4825      C4826   1.400       .  A
C4825      C4830   1.388       .  A
C4825      H4832   1.083       .  S
C4826      C4827   1.416       .  A
C4827      C4828   1.388       .  A
C4827      N4834   1.438       .  S
C4828      C4829   1.397       .  A
C4828      H4833   1.082       .  S
C4829      C4830   1.402       .  A
C4830      N4831   1.428       .  S
N4831      H4835   1.046       .  S
N4831      H4836   1.045       .  S
N4834      H4837   1.044       .  S
N4834      H4838   1.045       .  S
C4839      C4840   1.397       .  A
C4839      C4844   1.391       .  A
C4839      H4846   1.076       .  S
C4840      C4841   1.408       .  A
C4841      C4842   1.393       .  A
C4841      N4848   1.436       .  S
C4842      C4843   1.406       .  A
C4842      H4847   1.080       .  S
C4843      C4844   1.416       .  A
C4844      N4845   1.433       .  S
N4845      H4849   1.046       .  S
N4845      H4850   1.046       .  S
N4848      H4851   1.044       .  S
N4848      H4852   1.044       .  S
C4853      C4854   1.402       .  A
C4853      C4858   1.385       .  A
C4853      H4860   1.080       .  S
C4854      C4855   1.393       .  A
C4855      C4856   1.383       .  A
C4855      N4862   1.429       .  S
C4856      C4857   1.405       .  A
C4856      H4861   1.081       .  S
C4857      C4858   1.403       .  A
C4858      N4859   1.438       .  S
N4859      H4864   1.045       .  S
N4862      H4865   1.045       .  S
N4862      H4866   1.045       .  S
C4867      C4872   1.399       .  A
C4867      H4874   1.084       .  S
C4868      C4869   1.445       .  A
C4869      C4870   1.392       .  A
C4869      N4876   1.430       .  S
C4870      H4875   1.085       .  S
C4871      C4872   1.405       .  A
C4872      N4873   1.432       .  S
N4873      H4877   1.045       .  S
N4873      H4878   1.045       .  S
N4876      H4879   1.042       .  S
N4876      H4880   1.042       .  S
C4881      C4886   1.404       .  A
C4881      H4888   1.085       .  S
C4882      C4883   1.396       .  A
C4883      N4890   1.431       .  S
C4884      C4885   1.419       .  A
C4884      H4889   1.078       .  S
C4885      C4886   1.419       .  A
C4886      N4887   1.433       .  S
N4887      H4891   1.045       .  S
N4887      H4892   1.046       .  S
N4890      H4893   1.045   1_455  S
N4890      H4894   1.044       .  S
C4895      C4896   1.409       .  A
C4895      C4900   1.401       .  A
C4895      H4902   1.084       .  S
C4896      C4897   1.400       .  A
C4897      C4898   1.392       .  A
C4897      N4904   1.431       .  S
C4898      C4899   1.405       .  A
C4898      H4903   1.082       .  S
C4899      C4900   1.397       .  A
C4900      N4901   1.426       .  S
N4901      H4905   1.045       .  S
N4901      H4906   1.046       .  S
N4904      H4907   1.045       .  S
N4904      H4908   1.045       .  S
C4909      C4910   1.405       .  A
C4909      C4914   1.401       .  A
C4909      H4916   1.081       .  S
C4910      C4911   1.417       .  A
C4911      C4912   1.384       .  A
C4911      N4918   1.429       .  S
C4912      C4913   1.386       .  A
C4912      H4917   1.082       .  S
C4913      C4914   1.416       .  A
C4914      N4915   1.432       .  S
N4915      H4919   1.044       .  S
N4915      H4920   1.045       .  S
N4918      H4921   1.046       .  S
N4918      H4922   1.045       .  S
C4923      C4924   1.386       .  A
C4923      C4928   1.371       .  A
C4923      H4930   1.086       .  S
C4924      C4925   1.397       .  A
C4925      C4926   1.389       .  A
C4925      N4932   1.433       .  S
C4926      C4927   1.403       .  A
C4926      H4931   1.084       .  S
C4927      C4928   1.399       .  A
C4928      N4929   1.424       .  S
N4929      H4934   1.046       .  S
N4932      H4935   1.044       .  S
N4932      H4936   1.045       .  S
C4937      C4938   1.401       .  A
C4937      C4942   1.381       .  A
C4937      H4944   1.078       .  S
C4938      C4939   1.406       .  A
C4939      C4940   1.393       .  A
C4939      N4946   1.434       .  S
C4940      C4941   1.406       .  A
C4940      H4945   1.078       .  S
C4941      C4942   1.405       .  A
C4942      N4943   1.438       .  S
N4943      H4947   1.046       .  S
N4943      H4948   1.046       .  S
N4946      H4949   1.044       .  S
N4946      H4950   1.045       .  S
C4951      C4952   1.412       .  A
C4951      H4958   1.084       .  S
C4953      N4960   1.432       .  S
C4954      C4955   1.378       .  A
C4955      C4956   1.401       .  A
C4956      N4957   1.432       .  S
N4957      H4961   1.046       .  S
N4957      H4962   1.045       .  S
N4960      H4963   1.041       .  S
N4960      H4964   1.043       .  S
C4965      C4970   1.379       .  A
C4965      H4972   1.075       .  S
C4966      C4967   1.417       .  A
C4967      N4974   1.425       .  S
C4968      C4969   1.386       .  A
C4969      C4970   1.408       .  A
C4970      N4971   1.440       .  S
N4971      H4975   1.046       .  S
N4971      H4976   1.045       .  S
N4974      H4977   1.042       .  S
N4974      H4978   1.044       .  S
C4979      C4984   1.391       .  A
C4979      H4986   1.085       .  S
C4980      C4981   1.405       .  A
C4982      H4987   1.075       .  S
C4983      C4984   1.425       .  A
C4984      N4985   1.434       .  S
N4985      H4989   1.044       .  S
N4985      H4990   1.043       .  S
N4988      H4991   1.041       .  S
N4988      H4992   1.044       .  S
