geometry optimzed in LAMMPS
_audit_creation_date              2020-11-30 
_audit_creation_method            'lammps2cif' 
_symmetry_space_group_name_H-M    'P1' 
_symmetry_Int_Tables_number       1 
_symmetry_cell_setting            triclinic 
loop_ 
_symmetry_equiv_pos_as_xyz 
  x,y,z 
_cell_length_a                    39.64321339 
_cell_length_b                    38.25451544962835 
_cell_length_c                    38.25855477275621 
_cell_angle_alpha                 89.89269212171828 
_cell_angle_beta                  90.29256885596736 
_cell_angle_gamma                 90.62375988562353 
loop_ 
_atom_site_label 
_atom_site_type_symbol 
_atom_site_fract_x 
_atom_site_fract_y 
_atom_site_fract_z 
_atom_site_charge 
O1          O  0.37513555  0.44404614  0.02592529    -0.81400
C2          C  0.23977676  0.41662882  0.04117384     0.97900
O3          O  0.26124657  0.42606788  0.01875165    -0.70600
O4          O  0.31900420  0.44514784  0.48676802    -0.74200
Al5        Al  0.30581097  0.41036832  0.02312157     1.49000
C6          C  0.32289518  0.47831547  0.48872367     0.93200
O7          O  0.31897233  0.00557860  0.08563690    -0.80400
O8          O  0.32665196  0.44962389  0.12929720    -0.73900
Al9        Al  0.34389103  0.47184445  0.05581074     1.90100
O10         O  0.27148085  0.47697951  0.09524675    -0.73000
O11         O  0.30733192  0.38771042  0.10353858    -0.72900
O12         O  0.24839584  0.41580234  0.07346899    -0.78500
O13         O  0.29099703  0.36962924  0.05229691    -0.76700
O14         O  0.31340713  0.43850688  0.05894159    -1.12900
O15         O  0.34968819  0.39249207  0.02473635    -0.72000
C16         C  0.37555867  0.41116006  0.01951868     0.98700
C17         C  0.28883765  0.00446963  0.09743578     0.95100
Al18       Al  0.29022895  0.43288455  0.09762212     1.55600
O19         O  0.32155704  0.49245635  0.01808381    -0.76700
C20         C  0.29391182  0.36419464  0.08520354     0.99200
C21         C  0.35780493  0.45619205  0.12383975     0.94100
O22         O  0.36909757  0.45490073  0.09338131    -0.82000
O23         O  0.37813385  0.05144488  0.27662977    -0.81400
C24         C  0.01070007  0.08781917  0.28996825     0.97900
O25         O  0.48930208  0.07670788  0.26824005    -0.70600
O26         O  0.43210727  0.05541436  0.23756824    -0.74200
Al27       Al  0.44444117  0.08968457  0.27449615     1.49000
C28         C  0.43032156  0.02207008  0.23869453     0.93200
O29         O  0.43786473  0.49233661  0.33541927    -0.80400
O30         O  0.42816000  0.04708248  0.37967291    -0.73900
Al31       Al  0.41107115  0.02528081  0.30598940     1.90100
O32         O  0.48449103  0.02283039  0.34332494    -0.73000
O33         O  0.44515199  0.11021934  0.35552588    -0.72900
O34         O  0.00403175  0.08619022  0.32272662    -0.78500
O35         O  0.45822075  0.13046677  0.30422074    -0.76700
O36         O  0.43964350  0.06028316  0.30955847    -1.12900
O37         O  0.40003587  0.10467380  0.27764057    -0.72000
C38         C  0.37591662  0.08425130  0.27039021     0.98700
C39         C  0.46861409  0.49440873  0.34550531     0.95100
Al40       Al  0.46373688  0.06598979  0.34770239     1.55600
O41         O  0.43415143  0.00711651  0.26758025    -0.76700
C42         C  0.45703568  0.13468929  0.33736244     0.99200
C43         C  0.39684862  0.04041060  0.37402481     0.94100
O44         O  0.38567391  0.04051592  0.34342542    -0.82000
O45         O  0.18781620  0.25320263  0.16511626    -0.81400
C46         C  0.20866406  0.11179398  0.16610065     0.97900
O47         O  0.19540571  0.13515711  0.14771328    -0.70600
O48         O  0.17851132  0.19766772  0.12102322    -0.74200
Al49       Al  0.21410060  0.18013386  0.15374181     1.49000
C50         C  0.14741875  0.20451576  0.12620821     0.93200
O51         O  0.12884199  0.19320504  0.22359507    -0.80400
O52         O  0.18283010  0.19258432  0.26396773    -0.73900
Al53       Al  0.16125516  0.22010832  0.19442541     1.90100
O54         O  0.15184615  0.14099914  0.22498292    -0.73000
O55         O  0.24101328  0.17280360  0.23347821    -0.72900
O56         O  0.21017775  0.11678473  0.19914460    -0.78500
O57         O  0.25481696  0.16173485  0.17930179    -0.76700
O58         O  0.19044992  0.18627826  0.19191045    -1.12900
O59         O  0.23449897  0.22396900  0.15621071    -0.72000
C60         C  0.21806112  0.25171877  0.15385006     0.98700
C61         C  0.12725513  0.16058959  0.23099277     0.95100
Al62       Al  0.19599132  0.15791435  0.22779269     1.55600
O63         O  0.13611380  0.20329698  0.15663017    -0.76700
C64         C  0.26196959  0.16087363  0.21207203     0.99200
C65         C  0.17926741  0.22571108  0.26212950     0.94100
O66         O  0.18338880  0.24026940  0.23306906    -0.82000
O67         O  0.49900858  0.33655065  0.42992071    -0.81400
C68         C  0.12874065  0.33825338  0.47825417     0.97900
O69         O  0.10335658  0.35725979  0.47400811    -0.70600
O70         O  0.04539355  0.38190239  0.44996790    -0.74200
Al71       Al  0.05908139  0.34095688  0.47797876     1.49000
C72         C  0.04678921  0.38806802  0.41722726     0.93200
O73         O  0.07313416  0.30091949  0.37076000    -0.80400
O74         O  0.06513979  0.24540851  0.41570828    -0.73900
Al75       Al  0.03873780  0.31883245  0.40400348     1.90100
O76         O  0.11675706  0.29466071  0.40513170    -0.73000
O77         O  0.07167801  0.25856760  0.48296969    -0.72900
O78         O  0.12673715  0.30538289  0.47228892    -0.78500
O79         O  0.07247507  0.30600053  0.01399772    -0.76700
O80         O  0.06353904  0.31267198  0.44186739    -1.12900
O81         O  0.01370082  0.32729632  0.48434651    -0.72000
C82         C  0.49147114  0.33634470  0.46243940     0.98700
C83         C  0.10411346  0.29296231  0.37509952     0.95100
Al84       Al  0.09278693  0.27854631  0.44398234     1.55600
O85         O  0.05649903  0.36418142  0.39712117    -0.76700
C86         C  0.07522743  0.27280681  0.01216746     0.99200
C87         C  0.03464152  0.24701165  0.40495406     0.94100
O88         O  0.01850846  0.27491663  0.40729337    -0.82000
C89         C  0.12448845  0.21814125  0.09798700    -0.05000
C90         C  0.12391730  0.20327550  0.06444632    -0.02100
C91         C  0.10564673  0.21927850  0.03690721     0.02900
C92         C  0.08748874  0.25093974  0.04256531    -0.05000
C93         C  0.08474675  0.26314746  0.07720897    -0.02100
C94         C  0.10280699  0.24687554  0.10467710     0.02900
C95         C  0.14042321  0.17015759  0.05865989     0.37500
C96         C  0.06387791  0.29309031  0.08488177     0.37500
C97         C  0.09914035  0.26087489  0.13965012     0.35900
C98         C  0.10668505  0.20281177  0.50280184     0.35900
N99         N  0.09517435  0.27236391  0.16727020    -0.38900
N100        N  0.10778254  0.18900205  0.47594167    -0.38900
N101        N  0.04752363  0.31705282  0.09142780    -0.38300
N102        N  0.15259847  0.14328697  0.05371767    -0.38300
C103        C  0.16438969  0.24645583  0.29186349    -0.05000
C104        C  0.16659446  0.23403129  0.32652098    -0.02100
C105        C  0.14737761  0.24939243  0.35341526     0.02900
C106        C  0.12538347  0.27789337  0.34637818    -0.05000
C107        C  0.12409630  0.29123875  0.31209304    -0.02100
C108        C  0.14405649  0.27650074  0.28532033     0.02900
C109        C  0.18918191  0.20556335  0.33494815     0.37500
C110        C  0.10198256  0.32017042  0.30409740     0.38700
C111        C  0.14293828  0.29289630  0.25109989     0.35900
C112        C  0.14955347  0.23396341  0.38802851     0.35900
N113        N  0.14190940  0.30673830  0.22420666    -0.38900
N114        N  0.15213228  0.22086631  0.41517448    -0.38900
N115        N  0.08407426  0.34293885  0.29736252    -0.38300
N116        N  0.20721381  0.18295378  0.34189396    -0.38300
C117        C  0.34584456  0.09970532  0.25314049    -0.05000
C118        C  0.34926864  0.11866734  0.22144538    -0.02100
C119        C  0.32200130  0.13808030  0.20764103     0.02900
C120        C  0.29136660  0.14026481  0.22621917    -0.05000
C121        C  0.28812973  0.12041357  0.25789393    -0.02100
C122        C  0.31490085  0.09977330  0.27054131     0.02900
C123        C  0.38106062  0.11843730  0.20290284     0.37500
C124        C  0.25755984  0.12034740  0.27843856     0.37500
C125        C  0.31106831  0.07951500  0.30251451     0.35900
C126        C  0.32605058  0.15660099  0.17478597     0.35900
N127        N  0.30798903  0.06329902  0.32788956    -0.38900
N128        N  0.32928524  0.17119670  0.14846987    -0.38900
N129        N  0.23401578  0.11935698  0.29616370    -0.38300
N130        N  0.40632444  0.11869210  0.18790610    -0.38300
C131        C  0.04071562  0.10752572  0.27603032    -0.05000
C132        C  0.03718762  0.13015376  0.24641413    -0.02100
C133        C  0.06521389  0.14850318  0.23274679     0.02900
C134        C  0.09714342  0.14471547  0.24804012    -0.05000
C135        C  0.10073123  0.12322672  0.27812118    -0.02100
C136        C  0.07271279  0.10468851  0.29193816     0.02900
C137        C  0.50499144  0.13543769  0.22917703     0.37500
C138        C  0.13322447  0.12035633  0.29536463     0.37500
C139        C  0.07724844  0.08135651  0.32149196     0.35900
C140        C  0.06142899  0.17019446  0.20173432     0.35900
N141        N  0.08085424  0.06256203  0.34492331    -0.38900
N142        N  0.05842388  0.18737710  0.17700742    -0.38900
N143        N  0.15892456  0.11779369  0.30953621    -0.38300
N144        N  0.48016532  0.14068140  0.21410376    -0.38300
C145        C  0.47558418  0.16443393  0.35547349    -0.05000
C146        C  0.48398084  0.19546342  0.33708462    -0.02100
C147        C  0.00493134  0.22132935  0.35267141     0.02900
C148        C  0.01720524  0.21724628  0.38727537    -0.05000
C149        C  0.00866214  0.18698988  0.40604102    -0.02100
C150        C  0.48857260  0.16048722  0.39037095     0.02900
C151        C  0.47061383  0.20146219  0.30223131     0.37500
C152        C  0.01952891  0.18377015  0.44223365     0.37500
C153        C  0.48289561  0.12899629  0.41077736     0.35900
C154        C  0.01405531  0.25227989  0.33269178     0.35900
N155        N  0.47941865  0.10425964  0.42791481    -0.38900
N156        N  0.02115331  0.27678651  0.31642220    -0.38900
N157        N  0.02784498  0.18132337  0.47116495    -0.38300
N158        N  0.45992576  0.20635593  0.27446413    -0.38300
C159        C  0.03057932  0.41978104  0.40114027    -0.05000
C160        C  0.50306981  0.43615853  0.41779390    -0.02100
C161        C  0.48088765  0.45775738  0.39852318     0.02900
C162        C  0.48683152  0.46514369  0.36283979    -0.05000
C163        C  0.01624348  0.45186277  0.34722528    -0.02100
C164        C  0.03794851  0.42945997  0.36614947     0.02900
C165        C  0.49779268  0.43191170  0.45507534     0.37500
C166        C  0.02453352  0.46195922  0.31166993     0.37500
C167        C  0.06916255  0.41831379  0.35026211     0.35900
C168        C  0.45262308  0.47338436  0.41626959     0.35900
N169        N  0.09436222  0.40995843  0.33782582    -0.38900
N170        N  0.43048840  0.48523153  0.43164920    -0.38900
N171        N  0.03105902  0.47027340  0.28337829    -0.38300
N172        N  0.49369406  0.42905954  0.48488393    -0.38300
C173        C  0.41796493  0.00095553  0.20797247    -0.05000
C174        C  0.42048187  0.01458167  0.17381656    -0.02100
C175        C  0.40149372  0.99958663  0.14622536     0.02900
C176        C  0.38067297  0.46959488  0.15207181    -0.05000
C177        C  0.38169118  0.45326604  0.18494724    -0.02100
C178        C  0.39979875  0.46882233  0.21289982     0.02900
C179        C  0.44326366  0.04369681  0.16671084     0.37500
C180        C  0.36535745  0.41947490  0.18963561     0.37500
C181        C  0.39864021  0.45143070  0.24663151     0.35900
C182        C  0.40299574  0.01628794  0.11217966     0.35900
N183        N  0.39745122  0.43709328  0.27327879    -0.38900
N184        N  0.40493785  0.03018705  0.08535607    -0.38900
N185        N  0.35314340  0.39214869  0.19349278    -0.38300
N186        N  0.46166673  0.06665205  0.16090819    -0.38300
C187        C  0.37299585  0.02900757  0.40220150    -0.05000
C188        C  0.34954165  0.50106777  0.39622683    -0.02100
C189        C  0.32947166  0.48781761  0.42374850     0.02900
C190        C  0.33435513  0.50008188  0.45805536    -0.05000
C191        C  0.35419450  0.03118004  0.46290732    -0.02100
C192        C  0.37297119  0.04561259  0.43491450     0.02900
C193        C  0.34681411  0.48421846  0.36236225     0.37500
C194        C  0.35600357  0.04878723  0.49642925     0.37500
C195        C  0.39124388  0.07837185  0.43937428     0.35900
C196        C  0.30384091  0.46128096  0.41675336     0.35900
N197        N  0.40511267  0.10491369  0.44284697    -0.38900
N198        N  0.28338431  0.44014704  0.41129131    -0.38900
N199        N  0.35764883  0.06340545  0.02285707    -0.38300
N200        N  0.34416417  0.47035832  0.33560632    -0.38300
C201        C  0.27617616  0.33403481  0.10338902    -0.05000
C202        C  0.26487955  0.30438796  0.08429986    -0.02100
C203        C  0.24438182  0.27852523  0.10041167     0.02900
C204        C  0.23491367  0.28156255  0.13590623    -0.05000
C205        C  0.24591705  0.31061102  0.15517455    -0.02100
C206        C  0.26635071  0.33667530  0.13939198     0.02900
C207        C  0.27427949  0.30006696  0.04796770     0.37500
C208        C  0.23590515  0.31370266  0.19152939     0.37500
C209        C  0.27455632  0.36706577  0.16052419     0.35900
C210        C  0.23246943  0.24890847  0.07997451     0.35900
N211        N  0.27994364  0.39105191  0.17815768    -0.38900
N212        N  0.22307145  0.22558837  0.06319777    -0.38900
N213        N  0.22777696  0.31615615  0.22042314    -0.38300
N214        N  0.28167433  0.29662587  0.01895898    -0.38300
C215        C  0.27291082  0.03421674  0.11586427    -0.05000
C216        C  0.26366672  0.03057528  0.15142169    -0.02100
C217        C  0.24176524  0.05475987  0.16743436     0.02900
C218        C  0.22892174  0.08350944  0.14824339    -0.05000
C219        C  0.23940529  0.08732046  0.11251329    -0.02100
C220        C  0.26088251  0.06271104  0.09672231     0.02900
C221        C  0.27685970  0.00175012  0.17187263     0.37500
C222        C  0.22971867  0.11692385  0.09116876     0.37500
C223        C  0.26991724  0.06613976  0.06009322     0.35900
C224        C  0.23229259  0.04936400  0.20365841     0.35900
N225        N  0.27693789  0.06894960  0.03089441    -0.38900
N226        N  0.22487256  0.04494761  0.23256798    -0.38900
N227        N  0.22325811  0.14031923  0.07323043    -0.38300
N228        N  0.28726579  0.47903972  0.18863351    -0.38300
C229        C  0.45875214  0.35162267  0.47592365    -0.05000
C230        C  0.43729550  0.37161969  0.45392388    -0.02100
C231        C  0.41073602  0.39154316  0.46826980     0.02900
C232        C  0.40577819  0.39331989  0.00478672    -0.05000
C233        C  0.42553271  0.37189254  0.02655348    -0.02100
C234        C  0.45094858  0.35042599  0.01230192     0.02900
C235        C  0.44215087  0.37218886  0.41633956     0.37500
C236        C  0.41905725  0.37137947  0.06387800     0.37500
C237        C  0.46765984  0.32584143  0.03530425     0.35900
C238        C  0.38738449  0.40858681  0.44484787     0.35900
N239        N  0.98053474  0.30589842  0.05366227    -0.38900
N240        N  0.36905664  0.42099192  0.42494585    -0.38900
N241        N  0.41375815  0.37110799  0.09359809    -0.38300
N242        N  0.44592666  0.37295859  0.38636231    -0.38300
C243        C  0.20743039  0.40035314  0.02777972    -0.05000
C244        C  0.19524609  0.40896736  0.49391904    -0.02100
C245        C  0.17128500  0.38719947  0.47677891     0.02900
C246        C  0.15957024  0.35595830  0.49266618    -0.05000
C247        C  0.17142298  0.34759436  0.02646688    -0.02100
C248        C  0.19309517  0.37090021  0.04478497     0.02900
C249        C  0.20588589  0.44137110  0.47732808     0.37500
C250        C  0.16178475  0.31486040  0.04270198     0.37500
C251        C  0.19775669  0.36607236  0.08199567     0.35900
C252        C  0.15880868  0.39676057  0.44234281     0.35900
N253        N  0.19968907  0.36287611  0.11199523    -0.38900
N254        N  0.14863996  0.40418060  0.41493540    -0.38900
N255        N  0.15571576  0.28847047  0.05611949    -0.38300
N256        N  0.21415107  0.46733851  0.46418712    -0.38300
O257        O  0.37513698  0.44404558  0.52592699    -0.81400
C258        C  0.23977922  0.41662546  0.54117555     0.97900
O259        O  0.26124912  0.42606510  0.51875382    -0.70600
O260        O  0.31900247  0.44514953  0.98676571    -0.74200
Al261      Al  0.30581341  0.41036614  0.52312357     1.49000
C262        C  0.32289456  0.47831709  0.98872151     0.93200
O263        O  0.31897161  0.00558127  0.58563358    -0.80400
O264        O  0.32665439  0.44961979  0.62929985    -0.73900
Al265      Al  0.34389208  0.47184269  0.55581314     1.90100
O266        O  0.27148234  0.47697616  0.59525199    -0.73000
O267        O  0.30733453  0.38770663  0.60353975    -0.72900
O268        O  0.24839787  0.41579874  0.57347094    -0.78500
O269        O  0.29099973  0.36962621  0.55229789    -0.76700
O270        O  0.31340877  0.43850459  0.55894392    -1.12900
O271        O  0.34969111  0.39249074  0.52473851    -0.72000
C272        C  0.37556103  0.41115958  0.51952051     0.98700
C273        C  0.28883655  0.00447265  0.59743121     0.95100
Al274      Al  0.29023102  0.43288090  0.59762477     1.55600
O275        O  0.32155777  0.49245483  0.51808612    -0.76700
C276        C  0.29391468  0.36419103  0.58520444     0.99200
C277        C  0.35780719  0.45618843  0.62384180     0.94100
O278        O  0.36909903  0.45489838  0.59338300    -0.82000
O279        O  0.37813306  0.05144368  0.77662964    -0.81400
C280        C  0.01069825  0.08782035  0.78997030     0.97900
O281        O  0.48930058  0.07670964  0.76824137    -0.70600
O282        O  0.43210625  0.05541592  0.73756869    -0.74200
Al283      Al  0.44443947  0.08968471  0.77449819     1.49000
C284        C  0.43032087  0.02207150  0.73869356     0.93200
O285        O  0.43786512  0.49233907  0.83542089    -0.80400
O286        O  0.42815853  0.04707895  0.87967314    -0.73900
Al287      Al  0.41107056  0.02527901  0.80598868     1.90100
O288        O  0.48449016  0.02282833  0.84332449    -0.73000
O289        O  0.44515070  0.11021653  0.85552912    -0.72900
O290        O  0.00403017  0.08618933  0.82272875    -0.78500
O291        O  0.45821822  0.13046581  0.80422432    -0.76700
O292        O  0.43964229  0.06028183  0.80955936    -1.12900
O293        O  0.40003406  0.10467294  0.77764330    -0.72000
C294        C  0.37591548  0.08425034  0.77039121     0.98700
C295        C  0.46861473  0.49441088  0.84550623     0.95100
Al296      Al  0.46373559  0.06598736  0.84770354     1.55600
O297        O  0.43415150  0.00711684  0.76757861    -0.76700
C298        C  0.45703352  0.13468731  0.83736600     0.99200
C299        C  0.39684722  0.04040706  0.87402478     0.94100
O300        O  0.38567279  0.04051205  0.84342523    -0.82000
O301        O  0.18781514  0.25319995  0.66511333    -0.81400
C302        C  0.20866078  0.11179198  0.66609911     0.97900
O303        O  0.19540208  0.13515508  0.64771232    -0.70600
O304        O  0.17850985  0.19766540  0.62102065    -0.74200
Al305      Al  0.21409850  0.18013094  0.65374010     1.49000
C306        C  0.14741728  0.20451342  0.62620556     0.93200
O307        O  0.12883960  0.19320351  0.72359255    -0.80400
O308        O  0.18282731  0.19258250  0.76396532    -0.73900
Al309      Al  0.16125316  0.22010620  0.69442277     1.90100
O310        O  0.15184311  0.14099746  0.72498037    -0.73000
O311        O  0.24101080  0.17280003  0.73347714    -0.72900
O312        O  0.21017460  0.11678223  0.69914313    -0.78500
O313        O  0.25481459  0.16173126  0.67930066    -0.76700
O314        O  0.19044790  0.18627611  0.69190862    -1.12900
O315        O  0.23449769  0.22396550  0.65620867    -0.72000
C316        C  0.21806025  0.25171546  0.65384736     0.98700
C317        C  0.12725242  0.16058819  0.73099074     0.95100
Al318      Al  0.19598847  0.15791205  0.72779088     1.55600
O319        O  0.13611221  0.20329416  0.65662738    -0.76700
C320        C  0.26196710  0.16086989  0.71207089     0.99200
C321        C  0.17926420  0.22570930  0.76212723     0.94100
O322        O  0.18338580  0.24026782  0.73306687    -0.82000
O323        O  0.49900623  0.33654873  0.92992158    -0.81400
C324        C  0.12873867  0.33825458  0.97825405     0.97900
O325        O  0.10335370  0.35725971  0.97400875    -0.70600
O326        O  0.04539047  0.38190043  0.94996812    -0.74200
Al327      Al  0.05907911  0.34095522  0.97797907     1.49000
C328        C  0.04678612  0.38806610  0.91722740     0.93200
O329        O  0.07313079  0.30091752  0.87075960    -0.80400
O330        O  0.06513873  0.24540737  0.91570865    -0.73900
Al331      Al  0.03873532  0.31883068  0.90400417     1.90100
O332        O  0.11675505  0.29466085  0.90512978    -0.73000
O333        O  0.07168024  0.25856616  0.98297007    -0.72900
O334        O  0.12673682  0.30538413  0.97228746    -0.78500
O335        O  0.07247604  0.30600178  0.51399768    -0.76700
O336        O  0.06353752  0.31267078  0.94186759    -1.12900
O337        O  0.01369859  0.32729314  0.98434682    -0.72000
C338        C  0.49146882  0.33634226  0.96244016     0.98700
C339        C  0.10411041  0.29296113  0.87509810     0.95100
Al340      Al  0.09278659  0.27854603  0.94398170     1.55600
O341        O  0.05649601  0.36417968  0.89712113    -0.76700
C342        C  0.07522620  0.27280789  0.51216714     0.99200
C343        C  0.03463985  0.24701022  0.90495574     0.94100
O344        O  0.01850666  0.27491495  0.90729575    -0.82000
C345        C  0.12448712  0.21814009  0.59798463    -0.05000
C346        C  0.12391355  0.20327373  0.56444425    -0.02100
C347        C  0.10564315  0.21927782  0.53690565     0.02900
C348        C  0.08748689  0.25093988  0.54256443    -0.05000
C349        C  0.08474574  0.26314728  0.57720808    -0.02100
C350        C  0.10280711  0.24687542  0.60467547     0.02900
C351        C  0.14041556  0.17015377  0.55865761     0.37500
C352        C  0.06387469  0.29308836  0.58488191     0.37500
C353        C  0.09914252  0.26087541  0.63964832     0.35900
C354        C  0.10669102  0.20281261  0.00280352     0.35900
N355        N  0.09517808  0.27236510  0.66726845    -0.38900
N356        N  0.10779079  0.18900247  0.97594360    -0.38900
N357        N  0.04751803  0.31704877  0.59142860    -0.38300
N358        N  0.15258681  0.14328138  0.55371448    -0.38300
C359        C  0.16438580  0.24645348  0.79186153    -0.05000
C360        C  0.16658781  0.23402680  0.82651853    -0.02100
C361        C  0.14737144  0.24938852  0.85341291     0.02900
C362        C  0.12537949  0.27789137  0.84637636    -0.05000
C363        C  0.12409376  0.29123772  0.81209159    -0.02100
C364        C  0.14405420  0.27649984  0.78531886     0.02900
C365        C  0.18917067  0.20555479  0.83494507     0.37500
C366        C  0.10198082  0.32017030  0.80409632     0.38700
C367        C  0.14293751  0.29289653  0.75109897     0.35900
C368        C  0.14954518  0.23395809  0.88802546     0.35900
N369        N  0.14190967  0.30673942  0.72420605    -0.38900
N370        N  0.15212280  0.22085938  0.91517094    -0.38900
N371        N  0.08407322  0.34293926  0.79736184    -0.38300
N372        N  0.20719837  0.18294120  0.84188997    -0.38300
C373        C  0.34584369  0.09970449  0.75314097    -0.05000
C374        C  0.34926827  0.11866816  0.72144689    -0.02100
C375        C  0.32200004  0.13807912  0.70764137     0.02900
C376        C  0.29136440  0.14026126  0.72621821    -0.05000
C377        C  0.28812719  0.12040867  0.75789201    -0.02100
C378        C  0.31489916  0.09976990  0.77054026     0.02900
C379        C  0.38106191  0.11844276  0.70290695     0.37500
C380        C  0.25755596  0.12033880  0.77843439     0.37500
C381        C  0.31106665  0.07951084  0.80251287     0.35900
C382        C  0.32604899  0.15659956  0.67478612     0.35900
N383        N  0.30798785  0.06329436  0.82788780    -0.38900
N384        N  0.32928300  0.17119476  0.64846973    -0.38900
N385        N  0.23401087  0.11934513  0.79615800    -0.38300
N386        N  0.40632700  0.11870158  0.68791269    -0.38300
C387        C  0.04071320  0.10752819  0.77603350    -0.05000
C388        C  0.03718324  0.13016248  0.74642235    -0.02100
C389        C  0.06520985  0.14850948  0.73275263     0.02900
C390        C  0.09714126  0.14471480  0.74803994    -0.05000
C391        C  0.10073047  0.12322163  0.77811785    -0.02100
C392        C  0.07271203  0.10468446  0.79193590     0.02900
C393        C  0.50498460  0.13545543  0.72919316     0.37500
C394        C  0.13322507  0.12034610  0.79535763     0.37500
C395        C  0.07724900  0.08134695  0.82148530     0.35900
C396        C  0.06142281  0.17020557  0.70174387     0.35900
N397        N  0.08085601  0.06254831  0.84491294    -0.38900
N398        N  0.05841581  0.18739208  0.67701980    -0.38900
N399        N  0.15892580  0.11777937  0.80952685    -0.38300
N400        N  0.48015661  0.14070759  0.71412652    -0.38300
C401        C  0.47558146  0.16443201  0.85547728    -0.05000
C402        C  0.48397383  0.19546331  0.83708951    -0.02100
C403        C  0.00492353  0.22133014  0.85267565     0.02900
C404        C  0.01720283  0.21724493  0.88727749    -0.05000
C405        C  0.00866407  0.18698660  0.90604204    -0.02100
C406        C  0.48857360  0.16048398  0.89037302     0.02900
C407        C  0.47060286  0.20146304  0.80223796     0.37500
C408        C  0.01953633  0.18376468  0.94223269     0.37500
C409        C  0.48289866  0.12899229  0.91077884     0.35900
C410        C  0.01404072  0.25228369  0.83269790     0.35900
N411        N  0.47942315  0.10425525  0.92791612    -0.38900
N412        N  0.02113287  0.27679343  0.81642978    -0.38900
N413        N  0.02785694  0.18131617  0.97116247    -0.38300
N414        N  0.45991163  0.20635743  0.77447226    -0.38300
C415        C  0.03057630  0.41977913  0.90114066    -0.05000
C416        C  0.50306478  0.43615450  0.91779278    -0.02100
C417        C  0.48088403  0.45775458  0.89852183     0.02900
C418        C  0.48683204  0.46514549  0.86284014    -0.05000
C419        C  0.01624618  0.45186704  0.84722770    -0.02100
C420        C  0.03794858  0.42946107  0.86615139     0.02900
C421        C  0.49778447  0.43190480  0.95507340     0.37500
C422        C  0.02454164  0.46196999  0.81167573     0.37500
C423        C  0.06916280  0.41831377  0.85026484     0.35900
C424        C  0.45261740  0.47337920  0.91626678     0.35900
N425        N  0.09436216  0.40995705  0.83782912    -0.38900
N426        N  0.43048111  0.48522437  0.93164544    -0.38900
N427        N  0.03107201  0.47028991  0.78338672    -0.38300
N428        N  0.49368344  0.42905065  0.98488142    -0.38300
C429        C  0.41796309  0.00095839  0.70797092    -0.05000
C430        C  0.42047817  0.01458624  0.67381547    -0.02100
C431        C  0.40148874  0.99959250  0.64622457     0.02900
C432        C  0.38067609  0.46959060  0.65207351    -0.05000
C433        C  0.38169316  0.45326291  0.68494963    -0.02100
C434        C  0.39980076  0.46881957  0.71290194     0.02900
C435        C  0.44325938  0.04370214  0.66670991     0.37500
C436        C  0.36535894  0.41947210  0.68963879     0.37500
C437        C  0.39864315  0.45142802  0.74663375     0.35900
C438        C  0.40298654  0.01629718  0.61218020     0.35900
N439        N  0.39745520  0.43709055  0.77328101    -0.38900
N440        N  0.40492492  0.03019917  0.58535802    -0.38900
N441        N  0.35314481  0.39214613  0.69349680    -0.38300
N442        N  0.46166190  0.06665764  0.66090730    -0.38300
C443        C  0.37299397  0.02900516  0.90220173    -0.05000
C444        C  0.34954541  0.50106835  0.89622632    -0.02100
C445        C  0.32947401  0.48781884  0.92374693     0.02900
C446        C  0.33435581  0.50008338  0.95805376    -0.05000
C447        C  0.35419443  0.03117805  0.96290826    -0.02100
C448        C  0.37297121  0.04560974  0.93491504     0.02900
C449        C  0.34682180  0.48421630  0.86236279     0.37500
C450        C  0.35600430  0.04878564  0.99642996     0.37500
C451        C  0.39124628  0.07836754  0.93937497     0.35900
C452        C  0.30384191  0.46128366  0.91675054     0.35900
N453        N  0.40511716  0.10490814  0.94284806    -0.38900
N454        N  0.28338408  0.44015153  0.91128772    -0.38900
N455        N  0.35764745  0.06340664  0.52285658    -0.38300
N456        N  0.34417493  0.47035344  0.83560811    -0.38300
C457        C  0.27617917  0.33403060  0.60338921    -0.05000
C458        C  0.26488502  0.30438297  0.58430003    -0.02100
C459        C  0.24438579  0.27852042  0.60041043     0.02900
C460        C  0.23491388  0.28155899  0.63590396    -0.05000
C461        C  0.24591553  0.31060795  0.65517240    -0.02100
C462        C  0.26635144  0.33667139  0.63939150     0.02900
C463        C  0.27429042  0.30006011  0.54796962     0.37500
C464        C  0.23589902  0.31370140  0.69152585     0.37500
C465        C  0.27455796  0.36706067  0.66052464     0.35900
C466        C  0.23247565  0.24890315  0.57997309     0.35900
N467        N  0.27994631  0.39104588  0.67815931    -0.38900
N468        N  0.22307919  0.22558224  0.56319607    -0.38900
N469        N  0.22776690  0.31615630  0.72041810    -0.38300
N470        N  0.28169007  0.29661721  0.51896247    -0.38300
C471        C  0.27290971  0.03421909  0.61586005    -0.05000
C472        C  0.26366755  0.03057700  0.65141794    -0.02100
C473        C  0.24176632  0.05476076  0.66743184     0.02900
C474        C  0.22891927  0.08350862  0.64824114    -0.05000
C475        C  0.23939957  0.08731946  0.61250989    -0.02100
C476        C  0.26087765  0.06271150  0.59671808     0.02900
C477        C  0.27685997  0.00175038  0.67186733     0.37500
C478        C  0.22970850  0.11692100  0.59116498     0.37500
C479        C  0.26990840  0.06613909  0.56008757     0.35900
C480        C  0.23229786  0.04936553  0.70365744     0.35900
N481        N  0.27692559  0.06894767  0.53088796    -0.38900
N482        N  0.22488179  0.04494936  0.73256782    -0.38900
N483        N  0.22324426  0.14031514  0.57322658    -0.38300
N484        N  0.28726703  0.47904121  0.68864005    -0.38300
C485        C  0.45874987  0.35162061  0.97592474    -0.05000
C486        C  0.43729035  0.37161301  0.95392341    -0.02100
C487        C  0.41073087  0.39153730  0.96826837     0.02900
C488        C  0.40578092  0.39332043  0.50478807    -0.05000
C489        C  0.42553304  0.37188893  0.52655307    -0.02100
C490        C  0.45094830  0.35042267  0.51230000     0.02900
C491        C  0.44214322  0.37217711  0.91633886     0.37500
C492        C  0.41905624  0.37137179  0.56387729     0.37500
C493        C  0.46765571  0.32583218  0.53529911     0.35900
C494        C  0.38737700  0.40857703  0.94484569     0.35900
N495        N  0.98052754  0.30588401  0.55365404    -0.38900
N496        N  0.36904696  0.42097921  0.92494410    -0.38900
N497        N  0.41375624  0.37109735  0.59359716    -0.38300
N498        N  0.44591716  0.37294303  0.88636109    -0.38300
C499        C  0.20743333  0.40034946  0.52778036    -0.05000
C500        C  0.19524197  0.40897112  0.99391903    -0.02100
C501        C  0.17128122  0.38720264  0.97677912     0.02900
C502        C  0.15956749  0.35596093  0.99266643    -0.05000
C503        C  0.17142586  0.34759072  0.52646630    -0.02100
C504        C  0.19309792  0.37089627  0.54478496     0.02900
C505        C  0.20587990  0.44137615  0.97732894     0.37500
C506        C  0.16178791  0.31485609  0.54270024     0.37500
C507        C  0.19775885  0.36606777  0.58199554     0.35900
C508        C  0.15880410  0.39676366  0.94234341     0.35900
N509        N  0.19969050  0.36287104  0.61199515    -0.38900
N510        N  0.14863470  0.40418381  0.91493626    -0.38900
N511        N  0.15571889  0.28846533  0.55611628    -0.38300
N512        N  0.21414334  0.46734457  0.96418925    -0.38300
O513        O  0.37513698  0.94404556  0.02592710    -0.81400
C514        C  0.23977921  0.91662545  0.04117549     0.97900
O515        O  0.26124910  0.92606516  0.01875390    -0.70600
O516        O  0.31900243  0.94514957  0.48676565    -0.74200
Al517      Al  0.30581339  0.91036612  0.02312360     1.49000
C518        C  0.32289455  0.97831713  0.48872146     0.93200
O519        O  0.31897160  0.50558127  0.08563351    -0.80400
O520        O  0.32665432  0.94961978  0.12929986    -0.73900
Al521      Al  0.34389210  0.97184264  0.05581321     1.90100
O522        O  0.27148231  0.97697608  0.09525188    -0.73000
O523        O  0.30733455  0.88770657  0.10353984    -0.72900
O524        O  0.24839783  0.91579864  0.07347095    -0.78500
O525        O  0.29099975  0.86962620  0.05229795    -0.76700
O526        O  0.31340881  0.93850451  0.05894395    -1.12900
O527        O  0.34969109  0.89249072  0.02473846    -0.72000
C528        C  0.37556102  0.91115949  0.01952056     0.98700
C529        C  0.28883651  0.50447266  0.09743115     0.95100
Al530      Al  0.29023101  0.93288084  0.09762476     1.55600
O531        O  0.32155779  0.99245484  0.01808619    -0.76700
C532        C  0.29391471  0.86419094  0.08520441     0.99200
C533        C  0.35780715  0.95618839  0.12384185     0.94100
O534        O  0.36909904  0.95489825  0.09338309    -0.82000
O535        O  0.37813305  0.55144370  0.27662956    -0.81400
C536        C  0.01069831  0.58782035  0.28997029     0.97900
O537        O  0.48930058  0.57670983  0.26824129    -0.70600
O538        O  0.43210621  0.55541598  0.23756862    -0.74200
Al539      Al  0.44443943  0.58968478  0.27449813     1.49000
C540        C  0.43032089  0.52207164  0.23869347     0.93200
O541        O  0.43786509  0.99233908  0.33542087    -0.80400
O542        O  0.42815850  0.54707900  0.37967307    -0.73900
Al543      Al  0.41107057  0.52527900  0.30598859     1.90100
O544        O  0.48449015  0.52282836  0.34332441    -0.73000
O545        O  0.44515067  0.61021657  0.35552905    -0.72900
O546        O  0.00403023  0.58618937  0.32272868    -0.78500
O547        O  0.45821816  0.63046588  0.30422425    -0.76700
O548        O  0.43964225  0.56028188  0.30955932    -1.12900
O549        O  0.40003403  0.60467296  0.27764322    -0.72000
C550        C  0.37591545  0.58425036  0.27039114     0.98700
C551        C  0.46861472  0.99441090  0.34550623     0.95100
Al552      Al  0.46373555  0.56598741  0.34770348     1.55600
O553        O  0.43415164  0.50711692  0.26757853    -0.76700
C554        C  0.45703348  0.63468735  0.33736593     0.99200
C555        C  0.39684715  0.54040702  0.37402469     0.94100
O556        O  0.38567275  0.54051188  0.34342518    -0.82000
O557        O  0.18781513  0.75319993  0.16511322    -0.81400
C558        C  0.20866071  0.61179196  0.16609906     0.97900
O559        O  0.19540202  0.63515509  0.14771229    -0.70600
O560        O  0.17850983  0.69766543  0.12102052    -0.74200
Al561      Al  0.21409847  0.68013091  0.15373997     1.49000
C562        C  0.14741729  0.70451338  0.12620536     0.93200
O563        O  0.12883947  0.69320356  0.22359230    -0.80400
O564        O  0.18282728  0.69258256  0.26396517    -0.73900
Al565      Al  0.16125310  0.72010619  0.19442259     1.90100
O566        O  0.15184307  0.64099755  0.22498031    -0.73000
O567        O  0.24101079  0.67280005  0.23347704    -0.72900
O568        O  0.21017453  0.61678225  0.19914311    -0.78500
O569        O  0.25481454  0.66173116  0.17930056    -0.76700
O570        O  0.19044787  0.68627613  0.19190851    -1.12900
O571        O  0.23449765  0.72396546  0.15620842    -0.72000
C572        C  0.21806024  0.75171539  0.15384720     0.98700
C573        C  0.12725233  0.66058833  0.23099060     0.95100
Al574      Al  0.19598843  0.65791211  0.22779080     1.55600
O575        O  0.13611218  0.70329403  0.15662723    -0.76700
C576        C  0.26196705  0.66086982  0.21207079     0.99200
C577        C  0.17926416  0.72570929  0.26212709     0.94100
O578        O  0.18338574  0.74026784  0.23306664    -0.82000
O579        O  0.49900621  0.83654877  0.42992153    -0.81400
C580        C  0.12873876  0.83825459  0.47825397     0.97900
O581        O  0.10335375  0.85725976  0.47400866    -0.70600
O582        O  0.04539044  0.88190043  0.44996807    -0.74200
Al583      Al  0.05907916  0.84095523  0.47797898     1.49000
C584        C  0.04678614  0.88806613  0.41722730     0.93200
O585        O  0.07313082  0.80091755  0.37075950    -0.80400
O586        O  0.06513885  0.74540744  0.41570849    -0.73900
Al587      Al  0.03873539  0.81883071  0.40400409     1.90100
O588        O  0.11675518  0.79466104  0.40512960    -0.73000
O589        O  0.07168021  0.75856618  0.48296987    -0.72900
O590        O  0.12673685  0.80538417  0.47228739    -0.78500
O591        O  0.07247602  0.80600180  0.01399757    -0.76700
O592        O  0.06353759  0.81267082  0.44186748    -1.12900
O593        O  0.01369864  0.82729308  0.48434680    -0.72000
C594        C  0.49146877  0.83634230  0.46244006     0.98700
C595        C  0.10411052  0.79296124  0.37509794     0.95100
Al596      Al  0.09278667  0.77854611  0.44398156     1.55600
O597        O  0.05649611  0.86417974  0.39712109    -0.76700
C598        C  0.07522617  0.77280790  0.01216699     0.99200
C599        C  0.03463997  0.74701021  0.40495562     0.94100
O600        O  0.01850673  0.77491495  0.40729567    -0.82000
C601        C  0.12448708  0.71814006  0.09798451    -0.05000
C602        C  0.12391354  0.70327375  0.06444410    -0.02100
C603        C  0.10564313  0.71927782  0.03690545     0.02900
C604        C  0.08748685  0.75093989  0.04256431    -0.05000
C605        C  0.08474566  0.76314720  0.07720797    -0.02100
C606        C  0.10280698  0.74687530  0.10467535     0.02900
C607        C  0.14041553  0.67015380  0.05865748     0.37500
C608        C  0.06387464  0.79308836  0.08488182     0.37500
C609        C  0.09914228  0.76087518  0.13964824     0.35900
C610        C  0.10669101  0.70281258  0.50280343     0.35900
N611        N  0.09517778  0.77236485  0.16726835    -0.38900
N612        N  0.10779074  0.68900227  0.47594352    -0.38900
N613        N  0.04751804  0.81704875  0.09142849    -0.38300
N614        N  0.15258678  0.64328139  0.05371438    -0.38300
C615        C  0.16438577  0.74645354  0.29186124    -0.05000
C616        C  0.16658776  0.73402682  0.32651835    -0.02100
C617        C  0.14737140  0.74938860  0.35341259     0.02900
C618        C  0.12537947  0.77789143  0.34637614    -0.05000
C619        C  0.12409370  0.79123779  0.31209128    -0.02100
C620        C  0.14405416  0.77649983  0.28531866     0.02900
C621        C  0.18917070  0.70555489  0.33494491     0.37500
C622        C  0.10198076  0.82017028  0.30409601     0.38700
C623        C  0.14293743  0.79289659  0.25109859     0.35900
C624        C  0.14954510  0.73395808  0.38802537     0.35900
N625        N  0.14190941  0.80673946  0.22420589    -0.38900
N626        N  0.15212254  0.72085943  0.41517058    -0.38900
N627        N  0.08407299  0.84293925  0.29736150    -0.38300
N628        N  0.20719856  0.68294147  0.34188988    -0.38300
C629        C  0.34584365  0.59970451  0.25314092    -0.05000
C630        C  0.34926830  0.61866825  0.22144690    -0.02100
C631        C  0.32200000  0.63807914  0.20764136     0.02900
C632        C  0.29136432  0.64026115  0.22621811    -0.05000
C633        C  0.28812707  0.62040849  0.25789185    -0.02100
C634        C  0.31489909  0.59976982  0.27054013     0.02900
C635        C  0.38106184  0.61844291  0.20290702     0.37500
C636        C  0.25755575  0.62033848  0.27843412     0.37500
C637        C  0.31106661  0.57951074  0.30251273     0.35900
C638        C  0.32604900  0.65659960  0.17478623     0.35900
N639        N  0.30798781  0.56329414  0.32788754    -0.38900
N640        N  0.32928320  0.67119485  0.14846982    -0.38900
N641        N  0.23401060  0.61934465  0.29615761    -0.38300
N642        N  0.40632700  0.61870184  0.18791262    -0.38300
C643        C  0.04071324  0.60752818  0.27603336    -0.05000
C644        C  0.03718332  0.63016208  0.24642199    -0.02100
C645        C  0.06520984  0.64850920  0.23275229     0.02900
C646        C  0.09714118  0.64471489  0.24803982    -0.05000
C647        C  0.10073043  0.62322200  0.27811790    -0.02100
C648        C  0.07271201  0.60468470  0.29193598     0.02900
C649        C  0.50498459  0.63545579  0.22919334     0.37500
C650        C  0.13322481  0.62034683  0.29535783     0.37500
C651        C  0.07724899  0.58134748  0.32148547     0.35900
C652        C  0.06142284  0.67020509  0.20174327     0.35900
N653        N  0.08085598  0.56254891  0.34491333    -0.38900
N654        N  0.05841598  0.68739134  0.17701917    -0.38900
N655        N  0.15892560  0.61778022  0.30952731    -0.38300
N656        N  0.48015659  0.64070811  0.21412669    -0.38300
C657        C  0.47558145  0.66443206  0.35547728    -0.05000
C658        C  0.48397375  0.69546336  0.33708944    -0.02100
C659        C  0.00492361  0.72133000  0.35267561     0.02900
C660        C  0.01720296  0.71724492  0.38727740    -0.05000
C661        C  0.00866411  0.68698661  0.40604197    -0.02100
C662        C  0.48857352  0.66048404  0.39037298     0.02900
C663        C  0.47060294  0.70146308  0.30223812     0.37500
C664        C  0.01953635  0.68376475  0.44223285     0.37500
C665        C  0.48289841  0.62899249  0.41077892     0.35900
C666        C  0.01404090  0.75228369  0.33269770     0.35900
N667        N  0.47942284  0.60425553  0.42791631    -0.38900
N668        N  0.02113307  0.77679318  0.31642972    -0.38900
N669        N  0.02785689  0.68131621  0.47116237    -0.38300
N670        N  0.45991184  0.70635745  0.27447202    -0.38300
C671        C  0.03057627  0.91977915  0.40114065    -0.05000
C672        C  0.50306477  0.93615453  0.41779286    -0.02100
C673        C  0.48088407  0.95775463  0.39852180     0.02900
C674        C  0.48683198  0.96514548  0.36284018    -0.05000
C675        C  0.01624614  0.95186705  0.34722779    -0.02100
C676        C  0.03794857  0.92946111  0.36615131     0.02900
C677        C  0.49778448  0.93190482  0.45507326     0.37500
C678        C  0.02454165  0.96197006  0.31167557     0.37500
C679        C  0.06916275  0.91831379  0.35026479     0.35900
C680        C  0.45261734  0.97337916  0.41626676     0.35900
N681        N  0.09436213  0.90995708  0.33782902    -0.38900
N682        N  0.43048091  0.98522413  0.43164530    -0.38900
N683        N  0.03107197  0.97028993  0.28338688    -0.38300
N684        N  0.49368341  0.92905068  0.48488152    -0.38300
C685        C  0.41796306  0.50095842  0.20797086    -0.05000
C686        C  0.42047809  0.51458626  0.17381544    -0.02100
C687        C  0.40148863  0.49959256  0.14622448     0.02900
C688        C  0.38067601  0.96959058  0.15207361    -0.05000
C689        C  0.38169303  0.95326288  0.18494971    -0.02100
C690        C  0.39980061  0.96881962  0.21290204     0.02900
C691        C  0.44325931  0.54370222  0.16670981     0.37500
C692        C  0.36535868  0.91947218  0.18963895     0.37500
C693        C  0.39864273  0.95142827  0.24663389     0.35900
C694        C  0.40298630  0.51629725  0.11218023     0.35900
N695        N  0.39745463  0.93709084  0.27328122    -0.38900
N696        N  0.40492462  0.53019941  0.08535796    -0.38900
N697        N  0.35314433  0.89214624  0.19349696    -0.38300
N698        N  0.46166166  0.56665769  0.16090720    -0.38300
C699        C  0.37299395  0.52900519  0.40220175    -0.05000
C700        C  0.34954539  0.00106856  0.39622634    -0.02100
C701        C  0.32947404  0.98781903  0.42374689     0.02900
C702        C  0.33435585  0.00008342  0.45805376    -0.05000
C703        C  0.35419431  0.53117810  0.46290821    -0.02100
C704        C  0.37297102  0.54560981  0.43491494     0.02900
C705        C  0.34682175  0.98421653  0.36236271     0.37500
C706        C  0.35600407  0.54878570  0.49642987     0.37500
C707        C  0.39124602  0.57836783  0.43937484     0.35900
C708        C  0.30384182  0.96128373  0.41675049     0.35900
N709        N  0.40511682  0.60490836  0.44284772    -0.38900
N710        N  0.28338407  0.94015179  0.41128785    -0.38900
N711        N  0.35764719  0.56340673  0.02285650    -0.38300
N712        N  0.34417490  0.97035377  0.33560809    -0.38300
C713        C  0.27617917  0.83403057  0.10338918    -0.05000
C714        C  0.26488506  0.80438290  0.08429993    -0.02100
C715        C  0.24438587  0.77852041  0.10041037     0.02900
C716        C  0.23491387  0.78155894  0.13590383    -0.05000
C717        C  0.24591551  0.81060786  0.15517232    -0.02100
C718        C  0.26635135  0.83667137  0.13939143     0.02900
C719        C  0.27429060  0.80006003  0.04796952     0.37500
C720        C  0.23589901  0.81370127  0.19152577     0.37500
C721        C  0.27455776  0.86706065  0.16052454     0.35900
C722        C  0.23247569  0.74890294  0.07997291     0.35900
N723        N  0.27994622  0.89104592  0.17815922    -0.38900
N724        N  0.22307939  0.72558227  0.06319600    -0.38900
N725        N  0.22776687  0.81615629  0.22041800    -0.38300
N726        N  0.28169030  0.79661720  0.01896242    -0.38300
C727        C  0.27290967  0.53421907  0.11585999    -0.05000
C728        C  0.26366755  0.53057702  0.15141791    -0.02100
C729        C  0.24176630  0.55476076  0.16743187     0.02900
C730        C  0.22891913  0.58350859  0.14824111    -0.05000
C731        C  0.23939938  0.58731929  0.11250983    -0.02100
C732        C  0.26087747  0.56271143  0.09671793     0.02900
C733        C  0.27685995  0.50175045  0.17186724     0.37500
C734        C  0.22970827  0.61692087  0.09116485     0.37500
C735        C  0.26990809  0.56613890  0.06008750     0.35900
C736        C  0.23229796  0.54936560  0.20365735     0.35900
N737        N  0.27692528  0.56894743  0.03088769    -0.38900
N738        N  0.22488182  0.54494939  0.23256793    -0.38900
N739        N  0.22324418  0.64031492  0.07322648    -0.38300
N740        N  0.28726695  0.97904108  0.18864017    -0.38300
C741        C  0.45874987  0.85162067  0.47592473    -0.05000
C742        C  0.43729030  0.87161306  0.45392335    -0.02100
C743        C  0.41073082  0.89153727  0.46826832     0.02900
C744        C  0.40578094  0.89332046  0.00478813    -0.05000
C745        C  0.42553313  0.87188897  0.02655303    -0.02100
C746        C  0.45094839  0.85042270  0.01230003     0.02900
C747        C  0.44214315  0.87217712  0.41633880     0.37500
C748        C  0.41905627  0.87137179  0.06387731     0.37500
C749        C  0.46765572  0.82583224  0.03529901     0.35900
C750        C  0.38737678  0.90857689  0.44484555     0.35900
N751        N  0.98052753  0.80588407  0.05365393    -0.38900
N752        N  0.36904686  0.92097897  0.42494400    -0.38900
N753        N  0.41375620  0.87109737  0.09359707    -0.38300
N754        N  0.44591690  0.87294306  0.38636101    -0.38300
C755        C  0.20743335  0.90034936  0.02778035    -0.05000
C756        C  0.19524192  0.90897126  0.49391905    -0.02100
C757        C  0.17128127  0.88720271  0.47677917     0.02900
C758        C  0.15956756  0.85596095  0.49266630    -0.05000
C759        C  0.17142583  0.84759071  0.02646620    -0.02100
C760        C  0.19309788  0.87089623  0.04478484     0.02900
C761        C  0.20587985  0.94137619  0.47732903     0.37500
C762        C  0.16178789  0.81485611  0.04269997     0.37500
C763        C  0.19775883  0.86606761  0.08199547     0.35900
C764        C  0.15880404  0.89676385  0.44234331     0.35900
N765        N  0.19969047  0.86287080  0.11199503    -0.38900
N766        N  0.14863466  0.90418389  0.41493639    -0.38900
N767        N  0.15571884  0.78846528  0.05611595    -0.38300
N768        N  0.21414331  0.96734461  0.46418918    -0.38300
O769        O  0.37513556  0.94404621  0.52592524    -0.81400
C770        C  0.23977670  0.91662895  0.54117379     0.97900
O771        O  0.26124650  0.92606794  0.51875164    -0.70600
O772        O  0.31900419  0.94514787  0.98676808    -0.74200
Al773      Al  0.30581092  0.91036838  0.52312150     1.49000
C774        C  0.32289522  0.97831543  0.98872367     0.93200
O775        O  0.31897233  0.50557867  0.58563681    -0.80400
O776        O  0.32665198  0.94962387  0.62929716    -0.73900
Al777      Al  0.34389105  0.97184449  0.55581072     1.90100
O778        O  0.27148084  0.97697952  0.59524682    -0.73000
O779        O  0.30733184  0.88771043  0.60353854    -0.72900
O780        O  0.24839580  0.91580240  0.57346899    -0.78500
O781        O  0.29099697  0.86962928  0.55229683    -0.76700
O782        O  0.31340713  0.93850692  0.55894157    -1.12900
O783        O  0.34968815  0.89249214  0.52473618    -0.72000
C784        C  0.37555865  0.91116013  0.51951856     0.98700
C785        C  0.28883770  0.50446969  0.59743577     0.95100
Al786      Al  0.29022893  0.93288456  0.59762211     1.55600
O787        O  0.32155700  0.99245638  0.51808378    -0.76700
C788        C  0.29391174  0.86419466  0.58520346     0.99200
C789        C  0.35780494  0.95619208  0.62383973     0.94100
O790        O  0.36909761  0.95490079  0.59338127    -0.82000
O791        O  0.37813388  0.55144484  0.77662984    -0.81400
C792        C  0.01070006  0.58781916  0.78996817     0.97900
O793        O  0.48930203  0.57670791  0.76824012    -0.70600
O794        O  0.43210724  0.55541438  0.73756830    -0.74200
Al795      Al  0.44444113  0.58968458  0.77449620     1.49000
C796        C  0.43032161  0.52207004  0.73869456     0.93200
O797        O  0.43786471  0.99233662  0.83541936    -0.80400
O798        O  0.42816000  0.54708250  0.87967299    -0.73900
Al799      Al  0.41107118  0.52528079  0.80598944     1.90100
O800        O  0.48449101  0.52283043  0.84332501    -0.73000
O801        O  0.44515196  0.61021936  0.85552594    -0.72900
O802        O  0.00403169  0.58619024  0.82272663    -0.78500
O803        O  0.45822072  0.63046678  0.80422079    -0.76700
O804        O  0.43964348  0.56028317  0.80955854    -1.12900
O805        O  0.40003582  0.60467378  0.77764064    -0.72000
C806        C  0.37591668  0.58425128  0.77039022     0.98700
C807        C  0.46861414  0.99440874  0.84550538     0.95100
Al808      Al  0.46373684  0.56598981  0.84770245     1.55600
O809        O  0.43415145  0.50711650  0.76758025    -0.76700
C810        C  0.45703571  0.63468933  0.83736241     0.99200
C811        C  0.39684857  0.54041051  0.87402477     0.94100
O812        O  0.38567397  0.54051589  0.84342546    -0.82000
O813        O  0.18781612  0.75320263  0.66511616    -0.81400
C814        C  0.20866405  0.61179406  0.66610049     0.97900
O815        O  0.19540579  0.63515713  0.64771318    -0.70600
O816        O  0.17851129  0.69766771  0.62102319    -0.74200
Al817      Al  0.21410058  0.68013387  0.65374178     1.49000
C818        C  0.14741867  0.70451576  0.62620822     0.93200
O819        O  0.12884194  0.69320509  0.72359498    -0.80400
O820        O  0.18283006  0.69258434  0.76396765    -0.73900
Al821      Al  0.16125510  0.72010833  0.69442534     1.90100
O822        O  0.15184606  0.64099916  0.72498283    -0.73000
O823        O  0.24101324  0.67280359  0.73347817    -0.72900
O824        O  0.21017767  0.61678473  0.69914456    -0.78500
O825        O  0.25481696  0.66173484  0.67930177    -0.76700
O826        O  0.19044986  0.68627825  0.69191041    -1.12900
O827        O  0.23449891  0.72396901  0.65621078    -0.72000
C828        C  0.21806106  0.75171878  0.65385004     0.98700
C829        C  0.12725504  0.66058961  0.73099266     0.95100
Al830      Al  0.19599125  0.65791436  0.72779263     1.55600
O831        O  0.13611376  0.70329698  0.65663013    -0.76700
C832        C  0.26196957  0.66087362  0.71207196     0.99200
C833        C  0.17926743  0.72571121  0.76212935     0.94100
O834        O  0.18338877  0.74026943  0.73306897    -0.82000
O835        O  0.49900875  0.83655067  0.92992075    -0.81400
C836        C  0.12874069  0.83825338  0.97825409     0.97900
O837        O  0.10335655  0.85725980  0.97400799    -0.70600
O838        O  0.04539347  0.88190238  0.94996785    -0.74200
Al839      Al  0.05908137  0.84095689  0.97797865     1.49000
C840        C  0.04678921  0.88806802  0.91722714     0.93200
O841        O  0.07313414  0.80091964  0.87075981    -0.80400
O842        O  0.06513976  0.74540858  0.91570811    -0.73900
Al843      Al  0.03873783  0.81883253  0.90400337     1.90100
O844        O  0.11675703  0.79466092  0.90513152    -0.73000
O845        O  0.07167798  0.75856767  0.98296955    -0.72900
O846        O  0.12673719  0.80538294  0.97228877    -0.78500
O847        O  0.07247516  0.80600053  0.51399756    -0.76700
O848        O  0.06353906  0.81267204  0.94186726    -1.12900
O849        O  0.01370079  0.82729631  0.98434644    -0.72000
C850        C  0.49147129  0.83634476  0.96243942     0.98700
C851        C  0.10411356  0.79296240  0.87509942     0.95100
Al852      Al  0.09278694  0.77854640  0.94398218     1.55600
O853        O  0.05649915  0.86418148  0.89712116    -0.76700
C854        C  0.07522744  0.77280680  0.51216729     0.99200
C855        C  0.03464148  0.74701171  0.90495388     0.94100
O856        O  0.01850843  0.77491669  0.90729318    -0.82000
C857        C  0.12448844  0.71814122  0.59798689    -0.05000
C858        C  0.12391729  0.70327551  0.56444625    -0.02100
C859        C  0.10564679  0.71927849  0.53690705     0.02900
C860        C  0.08748877  0.75093975  0.54256514    -0.05000
C861        C  0.08474679  0.76314745  0.57720880    -0.02100
C862        C  0.10280693  0.74687548  0.60467697     0.02900
C863        C  0.14042315  0.67015756  0.55865986     0.37500
C864        C  0.06387788  0.79309032  0.58488162     0.37500
C865        C  0.09914024  0.76087470  0.63964996     0.35900
C866        C  0.10668506  0.70281185  0.00280176     0.35900
N867        N  0.09517426  0.77236367  0.66727007    -0.38900
N868        N  0.10778269  0.68900204  0.97594146    -0.38900
N869        N  0.04752359  0.81705277  0.59142762    -0.38300
N870        N  0.15259839  0.64328697  0.55371754    -0.38300
C871        C  0.16438975  0.74645584  0.79186343    -0.05000
C872        C  0.16659460  0.73403148  0.82652092    -0.02100
C873        C  0.14737772  0.74939250  0.85341525     0.02900
C874        C  0.12538344  0.77789347  0.84637802    -0.05000
C875        C  0.12409641  0.79123868  0.81209294    -0.02100
C876        C  0.14405645  0.77650079  0.78532016     0.02900
C877        C  0.18918210  0.70556356  0.83494812     0.37500
C878        C  0.10198244  0.82017049  0.80409725     0.38700
C879        C  0.14293822  0.79289628  0.75109974     0.35900
C880        C  0.14955354  0.73396364  0.88802847     0.35900
N881        N  0.14190932  0.80673832  0.72420648    -0.38900
N882        N  0.15213243  0.72086658  0.91517459    -0.38900
N883        N  0.08407418  0.84293862  0.79736258    -0.38300
N884        N  0.20721395  0.68295387  0.84189381    -0.38300
C885        C  0.34584459  0.59970522  0.75314044    -0.05000
C886        C  0.34926873  0.61866723  0.72144537    -0.02100
C887        C  0.32200140  0.63808032  0.70764110     0.02900
C888        C  0.29136667  0.64026482  0.72621923    -0.05000
C889        C  0.28812975  0.62041356  0.75789394    -0.02100
C890        C  0.31490092  0.59977330  0.77054128     0.02900
C891        C  0.38106079  0.61843724  0.70290281     0.37500
C892        C  0.25755964  0.62034711  0.77843842     0.37500
C893        C  0.31106838  0.57951485  0.80251448     0.35900
C894        C  0.32605069  0.65660100  0.67478607     0.35900
N895        N  0.30798920  0.56329894  0.82788944    -0.38900
N896        N  0.32928520  0.67119671  0.64846996    -0.38900
N897        N  0.23401548  0.61935646  0.79616325    -0.38300
N898        N  0.40632459  0.61869212  0.68790618    -0.38300
C899        C  0.04071560  0.60752577  0.77603035    -0.05000
C900        C  0.03718761  0.63015365  0.74641399    -0.02100
C901        C  0.06521382  0.64850308  0.73274666     0.02900
C902        C  0.09714335  0.64471559  0.74804005    -0.05000
C903        C  0.10073109  0.62322701  0.77812126    -0.02100
C904        C  0.07271275  0.60468872  0.79193828     0.02900
C905        C  0.50499155  0.63543786  0.72917722     0.37500
C906        C  0.13322441  0.62035688  0.79536493     0.37500
C907        C  0.07724838  0.58135682  0.82149208     0.35900
C908        C  0.06142891  0.67019423  0.70173391     0.35900
N909        N  0.08085417  0.56256235  0.84492359    -0.38900
N910        N  0.05842380  0.68737658  0.67700699    -0.38900
N911        N  0.15892426  0.61779447  0.80953658    -0.38300
N912        N  0.48016524  0.64068168  0.71410384    -0.38300
C913        C  0.47558423  0.66443391  0.85547355    -0.05000
C914        C  0.48398083  0.69546345  0.83708466    -0.02100
C915        C  0.00493126  0.72132937  0.85267124     0.02900
C916        C  0.01720522  0.71724632  0.88727530    -0.05000
C917        C  0.00866212  0.68698993  0.90604081    -0.02100
C918        C  0.48857267  0.66048720  0.89037097     0.02900
C919        C  0.47061389  0.70146219  0.80223141     0.37500
C920        C  0.01952899  0.68377023  0.94223376     0.37500
C921        C  0.48289559  0.62899630  0.91077742     0.35900
C922        C  0.01405524  0.75227989  0.83269164     0.35900
N923        N  0.47941856  0.60425967  0.92791489    -0.38900
N924        N  0.02115324  0.77678651  0.81642203    -0.38900
N925        N  0.02784492  0.68132342  0.97116473    -0.38300
N926        N  0.45992572  0.70635594  0.77446419    -0.38300
C927        C  0.03057925  0.91978101  0.90114027    -0.05000
C928        C  0.50306983  0.93615851  0.91779391    -0.02100
C929        C  0.48088772  0.95775737  0.89852323     0.02900
C930        C  0.48683148  0.96514368  0.86283982    -0.05000
C931        C  0.01624338  0.95186274  0.84722526    -0.02100
C932        C  0.03794842  0.92945993  0.86614940     0.02900
C933        C  0.49779278  0.93191171  0.95507544     0.37500
C934        C  0.02453325  0.96195902  0.81166997     0.37500
C935        C  0.06916246  0.91831367  0.85026196     0.35900
C936        C  0.45262319  0.97338451  0.91626971     0.35900
N937        N  0.09436211  0.90995840  0.83782566    -0.38900
N938        N  0.43048856  0.98523161  0.93164932    -0.38900
N939        N  0.03105868  0.97027313  0.78337813    -0.38300
N940        N  0.49369426  0.92905957  0.98488395    -0.38300
C941        C  0.41796503  0.50095555  0.70797244    -0.05000
C942        C  0.42048185  0.51458176  0.67381653    -0.02100
C943        C  0.40149371  0.49958670  0.64622540     0.02900
C944        C  0.38067297  0.96959488  0.65207180    -0.05000
C945        C  0.38169111  0.95326613  0.68494729    -0.02100
C946        C  0.39979866  0.96882230  0.71289986     0.02900
C947        C  0.44326359  0.54369704  0.66671088     0.37500
C948        C  0.36535714  0.91947490  0.68963570     0.37500
C949        C  0.39864012  0.95143069  0.74663158     0.35900
C950        C  0.40299554  0.51628824  0.61217953     0.35900
N951        N  0.39745115  0.93709330  0.77327886    -0.38900
N952        N  0.40493750  0.53018730  0.58535623    -0.38900
N953        N  0.35314307  0.89214895  0.69349288    -0.38300
N954        N  0.46166659  0.56665226  0.66090831    -0.38300
C955        C  0.37299585  0.52900744  0.90220150    -0.05000
C956        C  0.34954162  0.00106791  0.89622694    -0.02100
C957        C  0.32947167  0.98781767  0.92374850     0.02900
C958        C  0.33435520  0.00008191  0.95805545    -0.05000
C959        C  0.35419438  0.53118006  0.96290727    -0.02100
C960        C  0.37297104  0.54561252  0.93491439     0.02900
C961        C  0.34681396  0.98421854  0.86236201     0.37500
C962        C  0.35600341  0.54878734  0.99642915     0.37500
C963        C  0.39124374  0.57837191  0.93937415     0.35900
C964        C  0.30384084  0.96128103  0.91675342     0.35900
N965        N  0.40511238  0.60491369  0.94284679    -0.38900
N966        N  0.28338422  0.94014726  0.91129140    -0.38900
N967        N  0.35764850  0.56340550  0.52285695    -0.38300
N968        N  0.34416388  0.97035877  0.83560636    -0.38300
C969        C  0.27617608  0.83403485  0.60338894    -0.05000
C970        C  0.26487957  0.80438796  0.58429986    -0.02100
C971        C  0.24438188  0.77852519  0.60041163     0.02900
C972        C  0.23491366  0.78156252  0.63590618    -0.05000
C973        C  0.24591699  0.81061101  0.65517451    -0.02100
C974        C  0.26635059  0.83667538  0.63939191     0.02900
C975        C  0.27427964  0.80006694  0.54796771     0.37500
C976        C  0.23590504  0.81370268  0.69152922     0.37500
C977        C  0.27455609  0.86706575  0.66052405     0.35900
C978        C  0.23246958  0.74890845  0.57997443     0.35900
N979        N  0.27994352  0.89105193  0.67815773    -0.38900
N980        N  0.22307164  0.72558838  0.56319760    -0.38900
N981        N  0.22777664  0.81615616  0.72042304    -0.38300
N982        N  0.28167452  0.79662588  0.51895907    -0.38300
C983        C  0.27291084  0.53421684  0.61586419    -0.05000
C984        C  0.26366680  0.53057540  0.65142163    -0.02100
C985        C  0.24176532  0.55476001  0.66743427     0.02900
C986        C  0.22892180  0.58350947  0.64824335    -0.05000
C987        C  0.23940524  0.58732052  0.61251311    -0.02100
C988        C  0.26088246  0.56271099  0.59672220     0.02900
C989        C  0.27685981  0.50175022  0.67187256     0.37500
C990        C  0.22971858  0.61692380  0.59116860     0.37500
C991        C  0.26991709  0.56613960  0.56009302     0.35900
C992        C  0.23229280  0.54936417  0.70365849     0.35900
N993        N  0.27693759  0.56894934  0.53089422    -0.38900
N994        N  0.22487300  0.54494768  0.73256800    -0.38900
N995        N  0.22325782  0.64031923  0.57323027    -0.38300
N996        N  0.28726572  0.97903974  0.68863359    -0.38300
C997        C  0.45875230  0.85162278  0.97592366    -0.05000
C998        C  0.43729561  0.87161978  0.95392395    -0.02100
C999        C  0.41073607  0.89154320  0.96826981     0.02900
C1000       C  0.40577816  0.89332001  0.50478662    -0.05000
C1001       C  0.42553277  0.87189274  0.52655342    -0.02100
C1002       C  0.45094855  0.85042617  0.51230187     0.02900
C1003       C  0.44215102  0.87218897  0.91633960     0.37500
C1004       C  0.41905729  0.87137977  0.56387790     0.37500
C1005       C  0.46765982  0.82584150  0.53530436     0.35900
C1006       C  0.38738451  0.90858684  0.94484796     0.35900
N1007       N  0.98053470  0.80589843  0.55366214    -0.38900
N1008       N  0.36905662  0.92099211  0.92494600    -0.38900
N1009       N  0.41375810  0.87110827  0.59359797    -0.38300
N1010       N  0.44592685  0.87295882  0.88636240    -0.38300
C1011       C  0.20743030  0.90035327  0.52777979    -0.05000
C1012       C  0.19524609  0.90896735  0.99391894    -0.02100
C1013       C  0.17128499  0.88719949  0.97677893     0.02900
C1014       C  0.15957018  0.85595836  0.99266603    -0.05000
C1015       C  0.17142304  0.84759439  0.52646680    -0.02100
C1016       C  0.19309514  0.87090028  0.54478493     0.02900
C1017       C  0.20588593  0.94137108  0.97732810     0.37500
C1018       C  0.16178479  0.81486040  0.54270188     0.37500
C1019       C  0.19775664  0.86607239  0.58199557     0.35900
C1020       C  0.15880857  0.89676070  0.94234262     0.35900
N1021       N  0.19968900  0.86287610  0.61199518    -0.38900
N1022       N  0.14863992  0.90418082  0.91493552    -0.38900
N1023       N  0.15571589  0.78847045  0.55611933    -0.38300
N1024       N  0.21415105  0.96733854  0.96418721    -0.38300
O1025       O  0.87513556  0.44404579  0.02592525    -0.81400
C1026       C  0.73977663  0.41662910  0.04117370     0.97900
O1027       O  0.76124645  0.42606811  0.01875159    -0.70600
O1028       O  0.81900413  0.44514770  0.48676801    -0.74200
Al1029     Al  0.80581082  0.41036834  0.02312153     1.49000
C1030       C  0.82289533  0.47831541  0.48872376     0.93200
O1031       O  0.81897283  0.00557851  0.08563698    -0.80400
O1032       O  0.82665209  0.44962362  0.12929718    -0.73900
Al1033     Al  0.84389121  0.47184424  0.05581077     1.90100
O1034       O  0.77148112  0.47697973  0.09524679    -0.73000
O1035       O  0.80733164  0.38771035  0.10353846    -0.72900
O1036       O  0.74839568  0.41580262  0.07346892    -0.78500
O1037       O  0.79099663  0.36962929  0.05229679    -0.76700
O1038       O  0.81340711  0.43850686  0.05894157    -1.12900
O1039       O  0.84968798  0.39249184  0.02473632    -0.72000
C1040       C  0.87555853  0.41115976  0.01951861     0.98700
C1041       C  0.78883814  0.00446968  0.09743584     0.95100
Al1042     Al  0.79022892  0.43288459  0.09762208     1.55600
O1043       O  0.82155719  0.49245632  0.01808389    -0.76700
C1044       C  0.79391145  0.36419468  0.08520353     0.99200
C1045       C  0.85780505  0.45619159  0.12383982     0.94100
O1046       O  0.86909771  0.45490026  0.09338128    -0.82000
O1047       O  0.87813374  0.05144486  0.27662983    -0.81400
C1048       C  0.51070015  0.08781934  0.28996847     0.97900
O1049       O  0.98930198  0.07670759  0.26823994    -0.70600
O1050       O  0.93210711  0.05541411  0.23756821    -0.74200
Al1051     Al  0.94444111  0.08968442  0.27449599     1.49000
C1052       C  0.93032132  0.02206978  0.23869469     0.93200
O1053       O  0.93786459  0.49233683  0.33541957    -0.80400
O1054       O  0.92815999  0.04708274  0.37967291    -0.73900
Al1055     Al  0.91107097  0.02528087  0.30598954     1.90100
O1056       O  0.98449093  0.02283045  0.34332489    -0.73000
O1057       O  0.94515209  0.11021950  0.35552561    -0.72900
O1058       O  0.50403177  0.08619028  0.32272684    -0.78500
O1059       O  0.95822083  0.13046673  0.30422041    -0.76700
O1060       O  0.93964339  0.06028317  0.30955843    -1.12900
O1061       O  0.90003588  0.10467374  0.27764033    -0.72000
C1062       C  0.87591660  0.08425126  0.27039006     0.98700
C1063       C  0.96861395  0.49440892  0.34550551     0.95100
Al1064     Al  0.96373686  0.06598988  0.34770227     1.55600
O1065       O  0.93415110  0.00711636  0.26758042    -0.76700
C1066       C  0.95703588  0.13468934  0.33736203     0.99200
C1067       C  0.89684865  0.04041082  0.37402490     0.94100
O1068       O  0.88567386  0.04051618  0.34342549    -0.82000
O1069       O  0.68781597  0.25320253  0.16511626    -0.81400
C1070       C  0.70866449  0.11179405  0.16610060     0.97900
O1071       O  0.69540601  0.13515704  0.14771323    -0.70600
O1072       O  0.67851128  0.19766763  0.12102323    -0.74200
Al1073     Al  0.71410068  0.18013388  0.15374173     1.49000
C1074       C  0.64741874  0.20451556  0.12620818     0.93200
O1075       O  0.62884207  0.19320471  0.22359506    -0.80400
O1076       O  0.68283022  0.19258428  0.26396773    -0.73900
Al1077     Al  0.66125506  0.22010809  0.19442537     1.90100
O1078       O  0.65184648  0.14099891  0.22498295    -0.73000
O1079       O  0.74101345  0.17280406  0.23347798    -0.72900
O1080       O  0.71017826  0.11678487  0.19914459    -0.78500
O1081       O  0.75481719  0.16173507  0.17930167    -0.76700
O1082       O  0.69044996  0.18627816  0.19191038    -1.12900
O1083       O  0.73449883  0.22396906  0.15621067    -0.72000
C1084       C  0.71806091  0.25171877  0.15385005     0.98700
C1085       C  0.62725531  0.16058925  0.23099280     0.95100
Al1086     Al  0.69599159  0.15791438  0.22779264     1.55600
O1087       O  0.63611370  0.20329668  0.15663015    -0.76700
C1088       C  0.76196982  0.16087398  0.21207184     0.99200
C1089       C  0.67926738  0.22571098  0.26212946     0.94100
O1090       O  0.68338867  0.24026926  0.23306892    -0.82000
O1091       O  0.99900860  0.33655043  0.42992059    -0.81400
C1092       C  0.62874072  0.33825337  0.47825411     0.97900
O1093       O  0.60335663  0.35725978  0.47400809    -0.70600
O1094       O  0.54539363  0.38190237  0.44996784    -0.74200
Al1095     Al  0.55908144  0.34095687  0.47797875     1.49000
C1096       C  0.54678931  0.38806798  0.41722722     0.93200
O1097       O  0.57313404  0.30091943  0.37075996    -0.80400
O1098       O  0.56513980  0.24540855  0.41570817    -0.73900
Al1099     Al  0.53873778  0.31883247  0.40400354     1.90100
O1100       O  0.61675709  0.29466093  0.40513152    -0.73000
O1101       O  0.57167813  0.25856760  0.48296957    -0.72900
O1102       O  0.62673722  0.30538290  0.47228884    -0.78500
O1103       O  0.57247514  0.30600043  0.01399770    -0.76700
O1104       O  0.56353909  0.31267200  0.44186738    -1.12900
O1105       O  0.51370078  0.32729634  0.48434658    -0.72000
C1106       C  0.99147116  0.33634451  0.46243930     0.98700
C1107       C  0.60411343  0.29296237  0.37509936     0.95100
Al1108     Al  0.59278701  0.27854636  0.44398221     1.55600
O1109       O  0.55649914  0.36418134  0.39712113    -0.76700
C1110       C  0.57522752  0.27280678  0.01216746     0.99200
C1111       C  0.53464143  0.24701167  0.40495412     0.94100
O1112       O  0.51850838  0.27491664  0.40729359    -0.82000
C1113       C  0.62448848  0.21814112  0.09798697    -0.05000
C1114       C  0.62391743  0.20327547  0.06444626    -0.02100
C1115       C  0.60564700  0.21927853  0.03690716     0.02900
C1116       C  0.58748887  0.25093965  0.04256524    -0.05000
C1117       C  0.58474676  0.26314728  0.07720896    -0.02100
C1118       C  0.60280697  0.24687533  0.10467709     0.02900
C1119       C  0.64042327  0.17015733  0.05865990     0.37500
C1120       C  0.56387778  0.29309007  0.08488179     0.37500
C1121       C  0.59914020  0.26087451  0.13965009     0.35900
C1122       C  0.60668554  0.20281185  0.50280157     0.35900
N1123       N  0.59517415  0.27236360  0.16727023    -0.38900
N1124       N  0.60778314  0.18900208  0.47594143    -0.38900
N1125       N  0.54752348  0.31705251  0.09142780    -0.38300
N1126       N  0.65259830  0.14328676  0.05371792    -0.38300
C1127       C  0.66438961  0.24645581  0.29186336    -0.05000
C1128       C  0.66659458  0.23403147  0.32652102    -0.02100
C1129       C  0.64737773  0.24939265  0.35341521     0.02900
C1130       C  0.62538335  0.27789338  0.34637807    -0.05000
C1131       C  0.62409603  0.29123852  0.31209280    -0.02100
C1132       C  0.64405623  0.27650056  0.28532015     0.02900
C1133       C  0.68918224  0.20556385  0.33494823     0.37500
C1134       C  0.60198191  0.32016992  0.30409710     0.38700
C1135       C  0.64293785  0.29289602  0.25109961     0.35900
C1136       C  0.64955390  0.23396390  0.38802872     0.35900
N1137       N  0.64190875  0.30673802  0.22420641    -0.38900
N1138       N  0.65213310  0.22086712  0.41517469    -0.38900
N1139       N  0.58407334  0.34293806  0.29736226    -0.38300
N1140       N  0.70721437  0.18295435  0.34189402    -0.38300
C1141       C  0.84584454  0.09970521  0.25314041    -0.05000
C1142       C  0.84926840  0.11866642  0.22144483    -0.02100
C1143       C  0.82200113  0.13807943  0.20764049     0.02900
C1144       C  0.79136684  0.14026518  0.22621923    -0.05000
C1145       C  0.78813030  0.12041502  0.25789466    -0.02100
C1146       C  0.81490116  0.09977430  0.27054183     0.02900
C1147       C  0.88106020  0.11843561  0.20290184     0.37500
C1148       C  0.75756081  0.12035028  0.27844016     0.37500
C1149       C  0.81106871  0.07951637  0.30251539     0.35900
C1150       C  0.82605012  0.15659901  0.17478469     0.35900
N1151       N  0.80798961  0.06330083  0.32789059    -0.38900
N1152       N  0.82928454  0.17119382  0.14846823    -0.38900
N1153       N  0.73401722  0.11936113  0.29616575    -0.38300
N1154       N  0.90632376  0.11868977  0.18790478    -0.38300
C1155       C  0.54071571  0.10752579  0.27603063    -0.05000
C1156       C  0.53718771  0.13015425  0.24641476    -0.02100
C1157       C  0.56521398  0.14850345  0.23274734     0.02900
C1158       C  0.59714368  0.14471510  0.24804014    -0.05000
C1159       C  0.60073160  0.12322573  0.27812087    -0.02100
C1160       C  0.57271301  0.10468790  0.29193800     0.02900
C1161       C  0.00499155  0.13543658  0.22917587     0.37500
C1162       C  0.63322495  0.12035430  0.29536362     0.37500
C1163       C  0.57724861  0.08135543  0.32149144     0.35900
C1164       C  0.56142892  0.17019525  0.20173508     0.35900
N1165       N  0.58085451  0.06256053  0.34492247    -0.38900
N1166       N  0.55842371  0.18737813  0.17700850    -0.38900
N1167       N  0.65892532  0.11779081  0.30953486    -0.38300
N1168       N  0.98016545  0.14067980  0.21410221    -0.38300
C1169       C  0.97558457  0.16443391  0.35547312    -0.05000
C1170       C  0.98398145  0.19546330  0.33708407    -0.02100
C1171       C  0.50493091  0.22132934  0.35267165     0.02900
C1172       C  0.51720510  0.21724630  0.38727557    -0.05000
C1173       C  0.50866205  0.18698988  0.40604118    -0.02100
C1174       C  0.98857271  0.16048721  0.39037062     0.02900
C1175       C  0.97061511  0.20146184  0.30223079     0.37500
C1176       C  0.51952916  0.18377013  0.44223391     0.37500
C1177       C  0.98289568  0.12899631  0.41077705     0.35900
C1178       C  0.51405483  0.25227994  0.33269199     0.35900
N1179       N  0.97941872  0.10425964  0.42791454    -0.38900
N1180       N  0.52115267  0.27678652  0.31642244    -0.38900
N1181       N  0.52784534  0.18132337  0.47116494    -0.38300
N1182       N  0.95992735  0.20635543  0.27446307    -0.38300
C1183       C  0.53057944  0.41978089  0.40114016    -0.05000
C1184       C  0.00306967  0.43615860  0.41779407    -0.02100
C1185       C  0.98088760  0.45775762  0.39852336     0.02900
C1186       C  0.98683141  0.46514393  0.36283996    -0.05000
C1187       C  0.51624360  0.45186250  0.34722510    -0.02100
C1188       C  0.53794857  0.42945967  0.36614933     0.02900
C1189       C  0.99779253  0.43191166  0.45507533     0.37500
C1190       C  0.52453359  0.46195876  0.31166987     0.37500
C1191       C  0.56916263  0.41831338  0.35026188     0.35900
C1192       C  0.95262313  0.47338474  0.41626987     0.35900
N1193       N  0.59436226  0.40995812  0.33782557    -0.38900
N1194       N  0.93048847  0.48523186  0.43164949    -0.38900
N1195       N  0.53105909  0.47027287  0.28337804    -0.38300
N1196       N  0.99369389  0.42905930  0.48488411    -0.38300
C1197       C  0.91796478  0.00095513  0.20797264    -0.05000
C1198       C  0.92048245  0.01458074  0.17381660    -0.02100
C1199       C  0.90149462  0.99958544  0.14622529     0.02900
C1200       C  0.88067321  0.46959430  0.15207183    -0.05000
C1201       C  0.88169067  0.45326588  0.18494762    -0.02100
C1202       C  0.89979802  0.46882231  0.21290019     0.02900
C1203       C  0.94326449  0.04369567  0.16671094     0.37500
C1204       C  0.86535632  0.41947515  0.18963619     0.37500
C1205       C  0.89863854  0.45143120  0.24663230     0.35900
C1206       C  0.90299760  0.01628612  0.11217914     0.35900
N1207       N  0.89744880  0.43709430  0.27327961    -0.38900
N1208       N  0.90494042  0.03018442  0.08535538    -0.38900
N1209       N  0.85314171  0.39214918  0.19349357    -0.38300
N1210       N  0.96166776  0.06665072  0.16090824    -0.38300
C1211       C  0.87299587  0.02900765  0.40220157    -0.05000
C1212       C  0.84954149  0.50106821  0.39622694    -0.02100
C1213       C  0.82947172  0.48781779  0.42374849     0.02900
C1214       C  0.83435526  0.50008179  0.45805547    -0.05000
C1215       C  0.85419459  0.03118006  0.46290747    -0.02100
C1216       C  0.87297122  0.04561264  0.43491459     0.02900
C1217       C  0.84681370  0.48421905  0.36236191     0.37500
C1218       C  0.85600381  0.04878710  0.49642933     0.37500
C1219       C  0.89124395  0.07837187  0.43937448     0.35900
C1220       C  0.80384095  0.46128098  0.41675335     0.35900
N1221       N  0.90511275  0.10491366  0.44284723    -0.38900
N1222       N  0.78338446  0.44014709  0.41129132    -0.38900
N1223       N  0.85764919  0.06340494  0.02285734    -0.38300
N1224       N  0.84416352  0.47035932  0.33560628    -0.38300
C1225       C  0.77617571  0.33403485  0.10338888    -0.05000
C1226       C  0.76487922  0.30438797  0.08429987    -0.02100
C1227       C  0.74438151  0.27852517  0.10041161     0.02900
C1228       C  0.73491336  0.28156257  0.13590623    -0.05000
C1229       C  0.74591670  0.31061105  0.15517451    -0.02100
C1230       C  0.76635023  0.33667549  0.13939195     0.02900
C1231       C  0.77427927  0.30006692  0.04796765     0.37500
C1232       C  0.73590488  0.31370267  0.19152936     0.37500
C1233       C  0.77455542  0.36706598  0.16052388     0.35900
C1234       C  0.73246909  0.24890851  0.07997448     0.35900
N1235       N  0.77994246  0.39105247  0.17815743    -0.38900
N1236       N  0.72307104  0.22558842  0.06319757    -0.38900
N1237       N  0.72777658  0.31615614  0.22042315    -0.38300
N1238       N  0.78167416  0.29662587  0.01895902    -0.38300
C1239       C  0.77291143  0.03421690  0.11586430    -0.05000
C1240       C  0.76366747  0.03057549  0.15142181    -0.02100
C1241       C  0.74176596  0.05476012  0.16743435     0.02900
C1242       C  0.72892226  0.08350949  0.14824343    -0.05000
C1243       C  0.73940571  0.08732050  0.11251323    -0.02100
C1244       C  0.76088304  0.06271107  0.09672232     0.02900
C1245       C  0.77686056  0.00175049  0.17187273     0.37500
C1246       C  0.72971899  0.11692378  0.09116874     0.37500
C1247       C  0.76991780  0.06613979  0.06009323     0.35900
C1248       C  0.73229345  0.04936434  0.20365869     0.35900
N1249       N  0.77693848  0.06894960  0.03089442    -0.38900
N1250       N  0.72487365  0.04494794  0.23256802    -0.38900
N1251       N  0.72325822  0.14031921  0.07323044    -0.38300
N1252       N  0.78726686  0.47904025  0.18863375    -0.38300
C1253       C  0.95875214  0.35162236  0.47592349    -0.05000
C1254       C  0.93729555  0.37161947  0.45392383    -0.02100
C1255       C  0.91073599  0.39154288  0.46826970     0.02900
C1256       C  0.90577801  0.39331947  0.00478663    -0.05000
C1257       C  0.92553242  0.37189203  0.02655331    -0.02100
C1258       C  0.95094838  0.35042555  0.01230176     0.02900
C1259       C  0.94215103  0.37218888  0.41633952     0.37500
C1260       C  0.91905692  0.37137877  0.06387776     0.37500
C1261       C  0.96765952  0.32584096  0.03530396     0.35900
C1262       C  0.88738462  0.40858664  0.44484792     0.35900
N1263       N  0.48053495  0.30589896  0.05366254    -0.38900
N1264       N  0.86905675  0.42099211  0.42494587    -0.38900
N1265       N  0.91375774  0.37110720  0.09359787    -0.38300
N1266       N  0.94592698  0.37295884  0.38636231    -0.38300
C1267       C  0.70743025  0.40035331  0.02777969    -0.05000
C1268       C  0.69524603  0.40896741  0.49391900    -0.02100
C1269       C  0.67128507  0.38719947  0.47677889     0.02900
C1270       C  0.65957030  0.35595831  0.49266605    -0.05000
C1271       C  0.67142298  0.34759445  0.02646685    -0.02100
C1272       C  0.69309503  0.37090046  0.04478490     0.02900
C1273       C  0.70588591  0.44137113  0.47732805     0.37500
C1274       C  0.66178465  0.31486064  0.04270197     0.37500
C1275       C  0.69775651  0.36607267  0.08199569     0.35900
C1276       C  0.65880871  0.39676060  0.44234256     0.35900
N1277       N  0.69968890  0.36287661  0.11199523    -0.38900
N1278       N  0.64864007  0.40418058  0.41493540    -0.38900
N1279       N  0.65571556  0.28847068  0.05611954    -0.38300
N1280       N  0.71415116  0.46733849  0.46418712    -0.38300
O1281       O  0.87513701  0.44404513  0.52592698    -0.81400
C1282       C  0.73977912  0.41662552  0.54117557     0.97900
O1283       O  0.76124908  0.42606511  0.51875385    -0.70600
O1284       O  0.81900252  0.44514954  0.98676572    -0.74200
Al1285     Al  0.80581328  0.41036599  0.52312353     1.49000
C1286       C  0.82289467  0.47831710  0.98872155     0.93200
O1287       O  0.81897210  0.00558109  0.58563366    -0.80400
O1288       O  0.82665448  0.44961947  0.62929978    -0.73900
Al1289     Al  0.84389226  0.47184231  0.55581319     1.90100
O1290       O  0.77148263  0.47697620  0.59525197    -0.73000
O1291       O  0.80733426  0.38770643  0.60353976    -0.72900
O1292       O  0.74839775  0.41579887  0.57347095    -0.78500
O1293       O  0.79099955  0.36962606  0.55229784    -0.76700
O1294       O  0.81340879  0.43850436  0.55894391    -1.12900
O1295       O  0.84969091  0.39249043  0.52473830    -0.72000
C1296       C  0.87556091  0.41115912  0.51952042     0.98700
C1297       C  0.78883696  0.00447266  0.59743128     0.95100
Al1298     Al  0.79023102  0.43288081  0.59762475     1.55600
O1299       O  0.82155795  0.49245461  0.51808622    -0.76700
C1300       C  0.79391445  0.36419088  0.58520441     0.99200
C1301       C  0.85780732  0.45618784  0.62384177     0.94100
O1302       O  0.86909916  0.45489768  0.59338294    -0.82000
O1303       O  0.87813290  0.05144372  0.77662960    -0.81400
C1304       C  0.51069837  0.08782025  0.78997044     0.97900
O1305       O  0.98930052  0.07670960  0.76824133    -0.70600
O1306       O  0.93210614  0.05541574  0.73756863    -0.74200
Al1307     Al  0.94443937  0.08968470  0.77449800     1.49000
C1308       C  0.93032070  0.02207146  0.73869357     0.93200
O1309       O  0.93786494  0.49233920  0.83542101    -0.80400
O1310       O  0.92815836  0.04707928  0.87967306    -0.73900
Al1311     Al  0.91107038  0.02527917  0.80598871     1.90100
O1312       O  0.98448998  0.02282854  0.84332455    -0.73000
O1313       O  0.94515070  0.11021680  0.85552885    -0.72900
O1314       O  0.50403029  0.08618916  0.82272881    -0.78500
O1315       O  0.95821813  0.13046591  0.80422394    -0.76700
O1316       O  0.93964216  0.06028197  0.80955929    -1.12900
O1317       O  0.90003395  0.10467295  0.77764299    -0.72000
C1318       C  0.87591534  0.08425035  0.77039100     0.98700
C1319       C  0.96861458  0.49441102  0.84550641     0.95100
Al1320     Al  0.96373547  0.06598758  0.84770346     1.55600
O1321       O  0.93415132  0.00711681  0.76757879    -0.76700
C1322       C  0.95703351  0.13468746  0.83736572     0.99200
C1323       C  0.89684704  0.04040743  0.87402474     0.94100
O1324       O  0.88567259  0.04051238  0.84342519    -0.82000
O1325       O  0.68781490  0.25319982  0.66511308    -0.81400
C1326       C  0.70866106  0.11179184  0.66609909     0.97900
O1327       O  0.69540215  0.13515486  0.64771229    -0.70600
O1328       O  0.67850979  0.19766517  0.62102055    -0.74200
Al1329     Al  0.71409848  0.18013084  0.65373991     1.49000
C1330       C  0.64741720  0.20451309  0.62620540     0.93200
O1331       O  0.62883963  0.19320321  0.72359234    -0.80400
O1332       O  0.68282741  0.19258251  0.76396520    -0.73900
Al1333     Al  0.66125306  0.22010597  0.69442257     1.90100
O1334       O  0.65184339  0.14099728  0.72498043    -0.73000
O1335       O  0.74101094  0.17280032  0.73347686    -0.72900
O1336       O  0.71017495  0.11678223  0.69914311    -0.78500
O1337       O  0.75481464  0.16173132  0.67930041    -0.76700
O1338       O  0.69044795  0.18627601  0.69190847    -1.12900
O1339       O  0.73449750  0.22396549  0.65620837    -0.72000
C1340       C  0.71805996  0.25171538  0.65384708     0.98700
C1341       C  0.62725264  0.16058787  0.73099070     0.95100
Al1342     Al  0.69598870  0.15791207  0.72779080     1.55600
O1343       O  0.63611214  0.20329371  0.65662727    -0.76700
C1344       C  0.76196719  0.16087007  0.71207066     0.99200
C1345       C  0.67926410  0.22570931  0.76212701     0.94100
O1346       O  0.68338563  0.24026775  0.73306663    -0.82000
O1347       O  0.99900620  0.33654875  0.92992147    -0.81400
C1348       C  0.62873884  0.33825451  0.97825394     0.97900
O1349       O  0.60335380  0.35725968  0.97400870    -0.70600
O1350       O  0.54539057  0.38190041  0.94996811    -0.74200
Al1351     Al  0.55907919  0.34095517  0.97797907     1.49000
C1352       C  0.54678621  0.38806601  0.91722734     0.93200
O1353       O  0.57313070  0.30091739  0.87075960    -0.80400
O1354       O  0.56513876  0.24540737  0.91570874    -0.73900
Al1355     Al  0.53873529  0.31883057  0.90400424     1.90100
O1356       O  0.61675508  0.29466101  0.90512968    -0.73000
O1357       O  0.57168036  0.25856610  0.98296999    -0.72900
O1358       O  0.62673692  0.30538412  0.97228741    -0.78500
O1359       O  0.57247611  0.30600173  0.51399765    -0.76700
O1360       O  0.56353755  0.31267071  0.94186762    -1.12900
O1361       O  0.51369866  0.32729312  0.98434690    -0.72000
C1362       C  0.99146880  0.33634219  0.96244012     0.98700
C1363       C  0.60411044  0.29296115  0.87509806     0.95100
Al1364     Al  0.59278667  0.27854604  0.94398167     1.55600
O1365       O  0.55649601  0.36417952  0.89712114    -0.76700
C1366       C  0.57522632  0.27280786  0.51216707     0.99200
C1367       C  0.53463985  0.24701014  0.90495589     0.94100
O1368       O  0.51850661  0.27491486  0.90729596    -0.82000
C1369       C  0.62448708  0.21813981  0.59798460    -0.05000
C1370       C  0.62391362  0.20327360  0.56444410    -0.02100
C1371       C  0.60564344  0.21927781  0.53690547     0.02900
C1372       C  0.58748705  0.25093979  0.54256428    -0.05000
C1373       C  0.58474578  0.26314707  0.57720805    -0.02100
C1374       C  0.60280699  0.24687508  0.60467542     0.02900
C1375       C  0.64041542  0.17015350  0.55865755     0.37500
C1376       C  0.56387467  0.29308802  0.58488188     0.37500
C1377       C  0.59914232  0.26087504  0.63964834     0.35900
C1378       C  0.60669143  0.20281271  0.00280334     0.35900
N1379       N  0.59517769  0.27236481  0.66726840    -0.38900
N1380       N  0.60779136  0.18900253  0.97594359    -0.38900
N1381       N  0.54751768  0.31704827  0.59142861    -0.38300
N1382       N  0.65258644  0.14328102  0.55371447    -0.38300
C1383       C  0.66438568  0.24645341  0.79186134    -0.05000
C1384       C  0.66658771  0.23402690  0.82651833    -0.02100
C1385       C  0.64737153  0.24938859  0.85341279     0.02900
C1386       C  0.62537944  0.27789140  0.84637622    -0.05000
C1387       C  0.62409351  0.29123750  0.81209140    -0.02100
C1388       C  0.64405393  0.27649969  0.78531865     0.02900
C1389       C  0.68917088  0.20555482  0.83494499     0.37500
C1390       C  0.60198017  0.32016981  0.80409603     0.38700
C1391       C  0.64293706  0.29289625  0.75109865     0.35900
C1392       C  0.64954545  0.23395834  0.88802541     0.35900
N1393       N  0.64190900  0.30673894  0.72420575    -0.38900
N1394       N  0.65212316  0.22085969  0.91517089    -0.38900
N1395       N  0.58407230  0.34293845  0.79736159    -0.38300
N1396       N  0.70719862  0.18294174  0.84188996    -0.38300
C1397       C  0.84584355  0.09970440  0.75314079    -0.05000
C1398       C  0.84926797  0.11866755  0.72144640    -0.02100
C1399       C  0.82199983  0.13807853  0.70764083     0.02900
C1400       C  0.79136445  0.14026142  0.72621801    -0.05000
C1401       C  0.78812741  0.12040950  0.75789231    -0.02100
C1402       C  0.81489923  0.09977048  0.77054042     0.02900
C1403       C  0.88106150  0.11844153  0.70290611     0.37500
C1404       C  0.75755662  0.12034061  0.77843521     0.37500
C1405       C  0.81106678  0.07951175  0.80251336     0.35900
C1406       C  0.82604852  0.15659803  0.67478505     0.35900
N1407       N  0.80798797  0.06329548  0.82788830    -0.38900
N1408       N  0.82928230  0.17119243  0.64846815    -0.38900
N1409       N  0.73401173  0.11934774  0.79615931    -0.38300
N1410       N  0.90632632  0.11869998  0.68791165    -0.38300
C1411       C  0.54071334  0.10752798  0.77603354    -0.05000
C1412       C  0.53718340  0.13016250  0.74642270    -0.02100
C1413       C  0.56520995  0.14850951  0.73275298     0.02900
C1414       C  0.59714144  0.14471444  0.74803995    -0.05000
C1415       C  0.60073081  0.12322084  0.77811758    -0.02100
C1416       C  0.57271225  0.10468378  0.79193571     0.02900
C1417       C  0.00498474  0.13545494  0.72919266     0.37500
C1418       C  0.63322538  0.12034455  0.79535684     0.37500
C1419       C  0.57724917  0.08134598  0.82148480     0.35900
C1420       C  0.56142278  0.17020610  0.70174456     0.35900
N1421       N  0.58085606  0.06254704  0.84491234    -0.38900
N1422       N  0.55841584  0.18739292  0.67702079    -0.38900
N1423       N  0.65892638  0.11777704  0.80952581    -0.38300
N1424       N  0.98015647  0.14070680  0.71412572    -0.38300
C1425       C  0.97558154  0.16443216  0.85547691    -0.05000
C1426       C  0.98397415  0.19546329  0.83708907    -0.02100
C1427       C  0.50492320  0.22133011  0.85267599     0.02900
C1428       C  0.51720283  0.21724489  0.88727770    -0.05000
C1429       C  0.50866420  0.18698642  0.90604218    -0.02100
C1430       C  0.98857341  0.16048416  0.89037280     0.02900
C1431       C  0.97060375  0.20146287  0.80223741     0.37500
C1432       C  0.51953667  0.18376445  0.94223295     0.37500
C1433       C  0.98289829  0.12899258  0.91077875     0.35900
C1434       C  0.51404031  0.25228390  0.83269811     0.35900
N1435       N  0.97942273  0.10425559  0.92791609    -0.38900
N1436       N  0.52113241  0.27679341  0.81643008    -0.38900
N1437       N  0.52785730  0.18131590  0.97116250    -0.38300
N1438       N  0.95991297  0.20635714  0.77447129    -0.38300
C1439       C  0.53057643  0.41977906  0.90114056    -0.05000
C1440       C  0.00306466  0.43615455  0.91779301    -0.02100
C1441       C  0.98088394  0.45775473  0.89852208     0.02900
C1442       C  0.98683181  0.46514557  0.86284038    -0.05000
C1443       C  0.51624642  0.45186696  0.84722762    -0.02100
C1444       C  0.53794877  0.42946095  0.86615123     0.02900
C1445       C  0.99778435  0.43190478  0.95507361     0.37500
C1446       C  0.52454197  0.46196990  0.81167546     0.37500
C1447       C  0.56916286  0.41831343  0.85026465     0.35900
C1448       C  0.95261744  0.47337940  0.91626706     0.35900
N1449       N  0.59436210  0.40995651  0.83782880    -0.38900
N1450       N  0.93048103  0.48522462  0.93164567    -0.38900
N1451       N  0.53107234  0.47028985  0.78338671    -0.38300
N1452       N  0.99368327  0.42905064  0.98488166    -0.38300
C1453       C  0.91796296  0.00095806  0.70797112    -0.05000
C1454       C  0.92047874  0.01458549  0.67381542    -0.02100
C1455       C  0.90148955  0.99959147  0.64622447     0.02900
C1456       C  0.88067629  0.46958983  0.65207353    -0.05000
C1457       C  0.88169238  0.45326277  0.68495001    -0.02100
C1458       C  0.89979980  0.46881954  0.71290240     0.02900
C1459       C  0.94326015  0.04370112  0.66670992     0.37500
C1460       C  0.86535736  0.41947238  0.68963949     0.37500
C1461       C  0.89864121  0.45142870  0.74663446     0.35900
C1462       C  0.90298817  0.01629564  0.61217970     0.35900
N1463       N  0.89745252  0.43709162  0.77328204    -0.38900
N1464       N  0.90492723  0.03019708  0.58535747    -0.38900
N1465       N  0.85314267  0.39214675  0.69349780    -0.38300
N1466       N  0.96166277  0.06665659  0.66090730    -0.38300
C1467       C  0.87299383  0.02900547  0.90220174    -0.05000
C1468       C  0.84954536  0.50106880  0.89622641    -0.02100
C1469       C  0.82947410  0.48781900  0.92374697     0.02900
C1470       C  0.83435598  0.50008343  0.95805388    -0.05000
C1471       C  0.85419450  0.03117803  0.96290835    -0.02100
C1472       C  0.87297107  0.04560984  0.93491509     0.02900
C1473       C  0.84682140  0.48421702  0.86236257     0.37500
C1474       C  0.85600459  0.04878539  0.99643020     0.37500
C1475       C  0.89124623  0.07836779  0.93937512     0.35900
C1476       C  0.80384217  0.46128376  0.91675062     0.35900
N1477       N  0.90511717  0.10490812  0.94284810    -0.38900
N1478       N  0.78338424  0.44015153  0.91128795    -0.38900
N1479       N  0.85764781  0.06340643  0.52285688    -0.38300
N1480       N  0.84417427  0.47035454  0.83560795    -0.38300
C1481       C  0.77617889  0.33403049  0.60338912    -0.05000
C1482       C  0.76488488  0.30438285  0.58429991    -0.02100
C1483       C  0.74438555  0.27852032  0.60041021     0.02900
C1484       C  0.73491354  0.28155896  0.63590369    -0.05000
C1485       C  0.74591502  0.31060794  0.65517217    -0.02100
C1486       C  0.76635089  0.33667147  0.63939134     0.02900
C1487       C  0.77429052  0.30005991  0.54796961     0.37500
C1488       C  0.73589840  0.31370141  0.69152559     0.37500
C1489       C  0.77455688  0.36706095  0.66052430     0.35900
C1490       C  0.73247549  0.24890297  0.57997283     0.35900
N1491       N  0.77994485  0.39104644  0.67815885    -0.38900
N1492       N  0.72307906  0.22558205  0.56319586    -0.38900
N1493       N  0.72776622  0.31615630  0.72041780    -0.38300
N1494       N  0.78169039  0.29661694  0.51896251    -0.38300
C1495       C  0.77291035  0.03421926  0.61586009    -0.05000
C1496       C  0.76366831  0.03057717  0.65141809    -0.02100
C1497       C  0.74176702  0.05476097  0.66743196     0.02900
C1498       C  0.72891965  0.08350859  0.64824119    -0.05000
C1499       C  0.73939976  0.08731930  0.61250981    -0.02100
C1500       C  0.76087803  0.06271147  0.59671811     0.02900
C1501       C  0.77686084  0.00175093  0.67186737     0.37500
C1502       C  0.72970840  0.11692053  0.59116490     0.37500
C1503       C  0.76990875  0.06613907  0.56008754     0.35900
C1504       C  0.73229870  0.04936580  0.70365750     0.35900
N1505       N  0.77692593  0.06894767  0.53088796    -0.38900
N1506       N  0.72488265  0.04494963  0.73256803    -0.38900
N1507       N  0.72324402  0.14031467  0.57322630    -0.38300
N1508       N  0.78726808  0.47904155  0.68864027    -0.38300
C1509       C  0.95874973  0.35162044  0.97592456    -0.05000
C1510       C  0.93729030  0.37161287  0.95392338    -0.02100
C1511       C  0.91073072  0.39153703  0.96826827     0.02900
C1512       C  0.90578078  0.39331990  0.50478801    -0.05000
C1513       C  0.92553280  0.37188825  0.52655288    -0.02100
C1514       C  0.95094814  0.35042207  0.51229987     0.02900
C1515       C  0.94214331  0.37217726  0.91633862     0.37500
C1516       C  0.91905587  0.37137092  0.56387712     0.37500
C1517       C  0.96765540  0.32583147  0.53529880     0.35900
C1518       C  0.88737690  0.40857683  0.94484566     0.35900
N1519       N  0.48052775  0.30588482  0.55365430    -0.38900
N1520       N  0.86904699  0.42097920  0.92494408    -0.38900
N1521       N  0.91375579  0.37109632  0.59359690    -0.38300
N1522       N  0.94591725  0.37294332  0.88636112    -0.38300
C1523       C  0.70743328  0.40034951  0.52778036    -0.05000
C1524       C  0.69524200  0.40897115  0.99391878    -0.02100
C1525       C  0.67128140  0.38720249  0.97677902     0.02900
C1526       C  0.65956761  0.35596092  0.99266622    -0.05000
C1527       C  0.67142597  0.34759069  0.52646616    -0.02100
C1528       C  0.69309794  0.37089624  0.54478484     0.02900
C1529       C  0.70588010  0.44137590  0.97732863     0.37500
C1530       C  0.66178801  0.31485605  0.54270003     0.37500
C1531       C  0.69775869  0.36606782  0.58199554     0.35900
C1532       C  0.65880428  0.39676345  0.94234285     0.35900
N1533       N  0.69969009  0.36287128  0.61199509    -0.38900
N1534       N  0.64863523  0.40418331  0.91493598    -0.38900
N1535       N  0.65571896  0.28846530  0.55611603    -0.38300
N1536       N  0.71414369  0.46734431  0.96418873    -0.38300
O1537       O  0.87513704  0.94404514  0.02592714    -0.81400
C1538       C  0.73977924  0.91662554  0.04117553     0.97900
O1539       O  0.76124915  0.92606519  0.01875388    -0.70600
O1540       O  0.81900256  0.94514955  0.48676570    -0.74200
Al1541     Al  0.80581333  0.91036603  0.02312362     1.49000
C1542       C  0.82289477  0.97831712  0.48872160     0.93200
O1543       O  0.81897208  0.50558116  0.08563362    -0.80400
O1544       O  0.82665450  0.94961951  0.12929989    -0.73900
Al1545     Al  0.84389230  0.97184235  0.05581327     1.90100
O1546       O  0.77148267  0.97697625  0.09525190    -0.73000
O1547       O  0.80733436  0.88770646  0.10353984    -0.72900
O1548       O  0.74839784  0.91579886  0.07347096    -0.78500
O1549       O  0.79099953  0.86962610  0.05229796    -0.76700
O1550       O  0.81340883  0.93850441  0.05894399    -1.12900
O1551       O  0.84969093  0.89249044  0.02473847    -0.72000
C1552       C  0.87556095  0.91115915  0.01952051     0.98700
C1553       C  0.78883693  0.50447269  0.09743130     0.95100
Al1554     Al  0.79023106  0.93288084  0.09762479     1.55600
O1555       O  0.82155807  0.99245465  0.01808626    -0.76700
C1556       C  0.79391447  0.86419089  0.08520444     0.99200
C1557       C  0.85780728  0.95618788  0.12384189     0.94100
O1558       O  0.86909916  0.95489773  0.09338306    -0.82000
O1559       O  0.87813302  0.55144369  0.27662973    -0.81400
C1560       C  0.51069832  0.58782041  0.28997039     0.97900
O1561       O  0.98930060  0.57670956  0.26824126    -0.70600
O1562       O  0.93210612  0.55541568  0.23756863    -0.74200
Al1563     Al  0.94443943  0.58968465  0.27449800     1.49000
C1564       C  0.93032068  0.52207125  0.23869369     0.93200
O1565       O  0.93786489  0.99233925  0.33542111    -0.80400
O1566       O  0.92815855  0.54707926  0.37967314    -0.73900
Al1567     Al  0.91107050  0.52527914  0.30598880     1.90100
O1568       O  0.98449008  0.52282854  0.34332446    -0.73000
O1569       O  0.94515072  0.61021676  0.35552890    -0.72900
O1570       O  0.50403023  0.58618930  0.32272876    -0.78500
O1571       O  0.95821823  0.63046583  0.30422400    -0.76700
O1572       O  0.93964230  0.56028193  0.30955928    -1.12900
O1573       O  0.90003397  0.60467295  0.27764311    -0.72000
C1574       C  0.87591537  0.58425034  0.27039111     0.98700
C1575       C  0.96861454  0.99441102  0.34550639     0.95100
Al1576     Al  0.96373557  0.56598757  0.34770346     1.55600
O1577       O  0.93415133  0.50711673  0.26757877    -0.76700
C1578       C  0.95703359  0.63468741  0.33736567     0.99200
C1579       C  0.89684717  0.54040737  0.37402484     0.94100
O1580       O  0.88567279  0.54051240  0.34342528    -0.82000
O1581       O  0.68781507  0.75319986  0.16511325    -0.81400
C1582       C  0.70866101  0.61179190  0.16609914     0.97900
O1583       O  0.69540213  0.63515488  0.14771244    -0.70600
O1584       O  0.67850977  0.69766521  0.12102072    -0.74200
Al1585     Al  0.71409849  0.68013086  0.15374007     1.49000
C1586       C  0.64741717  0.70451319  0.12620556     0.93200
O1587       O  0.62883970  0.69320327  0.22359251    -0.80400
O1588       O  0.68282741  0.69258253  0.26396528    -0.73900
Al1589     Al  0.66125312  0.72010606  0.19442273     1.90100
O1590       O  0.65184341  0.64099730  0.22498039    -0.73000
O1591       O  0.74101099  0.67280038  0.23347703    -0.72900
O1592       O  0.71017496  0.61678225  0.19914325    -0.78500
O1593       O  0.75481465  0.66173133  0.17930057    -0.76700
O1594       O  0.69044797  0.68627605  0.19190861    -1.12900
O1595       O  0.73449763  0.72396548  0.15620853    -0.72000
C1596       C  0.71806012  0.75171539  0.15384726     0.98700
C1597       C  0.62725264  0.66058791  0.23099075     0.95100
Al1598     Al  0.69598871  0.65791209  0.22779090     1.55600
O1599       O  0.63611213  0.70329391  0.15662744    -0.76700
C1600       C  0.76196729  0.66087014  0.21207082     0.99200
C1601       C  0.67926417  0.72570930  0.26212716     0.94100
O1602       O  0.68338568  0.74026781  0.23306678    -0.82000
O1603       O  0.99900628  0.83654876  0.42992146    -0.81400
C1604       C  0.62873880  0.83825455  0.47825396     0.97900
O1605       O  0.60335381  0.85725972  0.47400868    -0.70600
O1606       O  0.54539055  0.88190041  0.44996801    -0.74200
Al1607     Al  0.55907917  0.84095522  0.47797902     1.49000
C1608       C  0.54678620  0.88806606  0.41722732     0.93200
O1609       O  0.57313071  0.80091744  0.37075954    -0.80400
O1610       O  0.56513873  0.74540739  0.41570873    -0.73900
Al1611     Al  0.53873531  0.81883061  0.40400418     1.90100
O1612       O  0.61675504  0.79466090  0.40512967    -0.73000
O1613       O  0.57168032  0.75856619  0.48297004    -0.72900
O1614       O  0.62673691  0.80538415  0.47228738    -0.78500
O1615       O  0.57247617  0.80600177  0.01399766    -0.76700
O1616       O  0.56353755  0.81267074  0.44186758    -1.12900
O1617       O  0.51369863  0.82729315  0.48434685    -0.72000
C1618       C  0.99146881  0.83634215  0.46244006     0.98700
C1619       C  0.60411041  0.79296115  0.37509802     0.95100
Al1620     Al  0.59278664  0.77854604  0.44398166     1.55600
O1621       O  0.55649603  0.86417955  0.39712105    -0.76700
C1622       C  0.57522628  0.77280790  0.01216719     0.99200
C1623       C  0.53463985  0.74701016  0.40495591     0.94100
O1624       O  0.51850661  0.77491491  0.40729589    -0.82000
C1625       C  0.62448711  0.71813991  0.09798474    -0.05000
C1626       C  0.62391359  0.70327372  0.06444423    -0.02100
C1627       C  0.60564338  0.71927785  0.03690562     0.02900
C1628       C  0.58748698  0.75093987  0.04256437    -0.05000
C1629       C  0.58474580  0.76314717  0.07720818    -0.02100
C1630       C  0.60280709  0.74687528  0.10467545     0.02900
C1631       C  0.64041540  0.67015352  0.05865770     0.37500
C1632       C  0.56387467  0.79308831  0.08488203     0.37500
C1633       C  0.59914258  0.76087538  0.13964851     0.35900
C1634       C  0.60669131  0.70281275  0.50280343     0.35900
N1635       N  0.59517814  0.77236513  0.16726837    -0.38900
N1636       N  0.60779110  0.68900256  0.47594354    -0.38900
N1637       N  0.54751791  0.81704852  0.09142876    -0.38300
N1638       N  0.65258637  0.64328112  0.05371465    -0.38300
C1639       C  0.66438574  0.74645344  0.29186146    -0.05000
C1640       C  0.66658769  0.73402673  0.32651848    -0.02100
C1641       C  0.64737137  0.74938852  0.35341280     0.02900
C1642       C  0.62537945  0.77789138  0.34637628    -0.05000
C1643       C  0.62409373  0.79123762  0.31209149    -0.02100
C1644       C  0.64405415  0.77649976  0.28531884     0.02900
C1645       C  0.68917071  0.70555487  0.33494505     0.37500
C1646       C  0.60198054  0.82017011  0.30409610     0.38700
C1647       C  0.64293737  0.79289639  0.25109884     0.35900
C1648       C  0.64954520  0.73395807  0.38802559     0.35900
N1649       N  0.64190945  0.80673923  0.22420607    -0.38900
N1650       N  0.65212286  0.72085945  0.41517082    -0.38900
N1651       N  0.58407279  0.84293876  0.29736172    -0.38300
N1652       N  0.70719861  0.68294153  0.34189010    -0.38300
C1653       C  0.84584358  0.59970429  0.25314089    -0.05000
C1654       C  0.84926799  0.61866753  0.22144644    -0.02100
C1655       C  0.82199986  0.63807846  0.20764099     0.02900
C1656       C  0.79136452  0.64026160  0.22621816    -0.05000
C1657       C  0.78812763  0.62040972  0.25789253    -0.02100
C1658       C  0.81489926  0.59977056  0.27054050     0.02900
C1659       C  0.88106141  0.61844148  0.20290623     0.37500
C1660       C  0.75755679  0.62034115  0.27843569     0.37500
C1661       C  0.81106689  0.57951182  0.30251357     0.35900
C1662       C  0.82604849  0.65659793  0.17478495     0.35900
N1663       N  0.80798819  0.56329573  0.32788850    -0.38900
N1664       N  0.82928227  0.67119219  0.14846825    -0.38900
N1665       N  0.73401219  0.61934854  0.29615976    -0.38300
N1666       N  0.90632630  0.61869978  0.18791159    -0.38300
C1667       C  0.54071331  0.60752815  0.27603358    -0.05000
C1668       C  0.53718337  0.63016280  0.24642284    -0.02100
C1669       C  0.56520993  0.64850973  0.23275313     0.02900
C1670       C  0.59714150  0.64471446  0.24803995    -0.05000
C1671       C  0.60073079  0.62322068  0.27811741    -0.02100
C1672       C  0.57271228  0.60468369  0.29193567     0.02900
C1673       C  0.00498477  0.63545426  0.22919199     0.37500
C1674       C  0.63322556  0.62034421  0.29535662     0.37500
C1675       C  0.57724914  0.58134594  0.32148464     0.35900
C1676       C  0.56142277  0.67020647  0.20174477     0.35900
N1677       N  0.58085602  0.56254683  0.34491226    -0.38900
N1678       N  0.55841582  0.68739346  0.17702119    -0.38900
N1679       N  0.65892639  0.61777656  0.30952545    -0.38300
N1680       N  0.98015673  0.64070599  0.21412492    -0.38300
C1681       C  0.97558167  0.66443206  0.35547692    -0.05000
C1682       C  0.98397420  0.69546324  0.33708902    -0.02100
C1683       C  0.50492331  0.72133014  0.35267597     0.02900
C1684       C  0.51720282  0.71724489  0.38727767    -0.05000
C1685       C  0.50866422  0.68698646  0.40604224    -0.02100
C1686       C  0.98857358  0.66048415  0.39037274     0.02900
C1687       C  0.97060376  0.70146281  0.30223734     0.37500
C1688       C  0.51953660  0.68376448  0.44223283     0.37500
C1689       C  0.98289850  0.62899253  0.41077871     0.35900
C1690       C  0.51404050  0.75228372  0.33269809     0.35900
N1691       N  0.97942295  0.60425559  0.42791601    -0.38900
N1692       N  0.52113265  0.77679339  0.31642998    -0.38900
N1693       N  0.52785725  0.68131593  0.47116261    -0.38300
N1694       N  0.95991315  0.70635717  0.27447121    -0.38300
C1695       C  0.53057650  0.91977913  0.40114051    -0.05000
C1696       C  0.00306462  0.93615457  0.41779291    -0.02100
C1697       C  0.98088386  0.95775468  0.39852204     0.02900
C1698       C  0.98683179  0.96514560  0.36284032    -0.05000
C1699       C  0.51624645  0.95186705  0.34722755    -0.02100
C1700       C  0.53794880  0.92946108  0.36615130     0.02900
C1701       C  0.99778436  0.93190481  0.45507358     0.37500
C1702       C  0.52454198  0.96197001  0.31167566     0.37500
C1703       C  0.56916292  0.91831360  0.35026473     0.35900
C1704       C  0.95261724  0.97337924  0.41626701     0.35900
N1705       N  0.59436226  0.90995677  0.33782899    -0.38900
N1706       N  0.93048097  0.98522437  0.43164579    -0.38900
N1707       N  0.53107254  0.97028994  0.28338663    -0.38300
N1708       N  0.99368346  0.92905067  0.48488158    -0.38300
C1709       C  0.91796290  0.50095802  0.20797114    -0.05000
C1710       C  0.92047872  0.51458536  0.17381550    -0.02100
C1711       C  0.90148953  0.49959140  0.14622453     0.02900
C1712       C  0.88067632  0.96958992  0.15207361    -0.05000
C1713       C  0.88169244  0.95326276  0.18495002    -0.02100
C1714       C  0.89979990  0.96881957  0.21290241     0.02900
C1715       C  0.94326018  0.54370090  0.16670998     0.37500
C1716       C  0.86535748  0.91947244  0.18963951     0.37500
C1717       C  0.89864125  0.95142875  0.24663441     0.35900
C1718       C  0.90298824  0.51629548  0.11217971     0.35900
N1719       N  0.89745248  0.93709164  0.27328198    -0.38900
N1720       N  0.90492742  0.53019681  0.08535743    -0.38900
N1721       N  0.85314266  0.89214674  0.19349775    -0.38300
N1722       N  0.96166293  0.56665633  0.16090724    -0.38300
C1723       C  0.87299398  0.52900544  0.40220177    -0.05000
C1724       C  0.84954546  0.00106865  0.39622645    -0.02100
C1725       C  0.82947407  0.98781897  0.42374699     0.02900
C1726       C  0.83435598  0.00008344  0.45805386    -0.05000
C1727       C  0.85419452  0.53117804  0.46290837    -0.02100
C1728       C  0.87297124  0.54560981  0.43491521     0.02900
C1729       C  0.84682159  0.98421678  0.36236268     0.37500
C1730       C  0.85600452  0.54878536  0.49643015     0.37500
C1731       C  0.89124641  0.57836758  0.43937525     0.35900
C1732       C  0.80384220  0.96128373  0.41675066     0.35900
N1733       N  0.90511741  0.60490813  0.44284828    -0.38900
N1734       N  0.78338441  0.94015132  0.41128789    -0.38900
N1735       N  0.85764776  0.56340648  0.02285682    -0.38300
N1736       N  0.84417449  0.97035426  0.33560803    -0.38300
C1737       C  0.77617892  0.83403055  0.10338924    -0.05000
C1738       C  0.76488505  0.80438282  0.08430005    -0.02100
C1739       C  0.74438575  0.77852029  0.10041038     0.02900
C1740       C  0.73491372  0.78155896  0.13590382    -0.05000
C1741       C  0.74591507  0.81060799  0.15517232    -0.02100
C1742       C  0.76635091  0.83667155  0.13939139     0.02900
C1743       C  0.77429076  0.80005982  0.04796975     0.37500
C1744       C  0.73589858  0.81370142  0.19152553     0.37500
C1745       C  0.77455687  0.86706101  0.16052441     0.35900
C1746       C  0.73247571  0.74890298  0.07997302     0.35900
N1747       N  0.77994482  0.89104647  0.17815901    -0.38900
N1748       N  0.72307927  0.72558206  0.06319602    -0.38900
N1749       N  0.72776642  0.81615633  0.22041803    -0.38300
N1750       N  0.78169062  0.79661693  0.01896268    -0.38300
C1751       C  0.77291032  0.53421923  0.11586015    -0.05000
C1752       C  0.76366818  0.53057719  0.15141809    -0.02100
C1753       C  0.74176689  0.55476085  0.16743193     0.02900
C1754       C  0.72891961  0.58350861  0.14824129    -0.05000
C1755       C  0.73939986  0.58731938  0.11250994    -0.02100
C1756       C  0.76087804  0.56271155  0.09671822     0.02900
C1757       C  0.77686083  0.50175068  0.17186750     0.37500
C1758       C  0.72970850  0.61692079  0.09116494     0.37500
C1759       C  0.76990890  0.56613915  0.06008767     0.35900
C1760       C  0.73229857  0.54936567  0.20365765     0.35900
N1761       N  0.77692616  0.56894771  0.03088815    -0.38900
N1762       N  0.72488262  0.54494962  0.23256802    -0.38900
N1763       N  0.72324403  0.64031473  0.07322644    -0.38300
N1764       N  0.78726803  0.97904154  0.18864042    -0.38300
C1765       C  0.95874982  0.85162039  0.47592460    -0.05000
C1766       C  0.93729034  0.87161286  0.45392331    -0.02100
C1767       C  0.91073087  0.89153706  0.46826830     0.02900
C1768       C  0.90578075  0.89331993  0.00478796    -0.05000
C1769       C  0.92553283  0.87188826  0.02655290    -0.02100
C1770       C  0.95094814  0.85042212  0.01229976     0.02900
C1771       C  0.94214328  0.87217713  0.41633876     0.37500
C1772       C  0.91905603  0.87137097  0.06387698     0.37500
C1773       C  0.96765550  0.82583148  0.03529878     0.35900
C1774       C  0.88737688  0.90857683  0.44484556     0.35900
N1775       N  0.48052795  0.80588482  0.05365423    -0.38900
N1776       N  0.86904699  0.92097897  0.42494404    -0.38900
N1777       N  0.91375603  0.87109635  0.09359701    -0.38300
N1778       N  0.94591722  0.87294331  0.38636101    -0.38300
C1779       C  0.70743340  0.90034948  0.02778035    -0.05000
C1780       C  0.69524214  0.90897109  0.49391881    -0.02100
C1781       C  0.67128143  0.88720251  0.47677894     0.02900
C1782       C  0.65956765  0.85596092  0.49266631    -0.05000
C1783       C  0.67142596  0.84759073  0.02646626    -0.02100
C1784       C  0.69309796  0.87089631  0.04478491     0.02900
C1785       C  0.70588022  0.94137591  0.47732854     0.37500
C1786       C  0.66178798  0.81485610  0.04270018     0.37500
C1787       C  0.69775874  0.86606785  0.08199547     0.35900
C1788       C  0.65880443  0.89676335  0.44234305     0.35900
N1789       N  0.69969028  0.86287108  0.11199509    -0.38900
N1790       N  0.64863521  0.90418312  0.41493584    -0.38900
N1791       N  0.65571893  0.78846535  0.05611619    -0.38300
N1792       N  0.71414389  0.96734415  0.46418862    -0.38300
O1793       O  0.87513560  0.94404580  0.52592521    -0.81400
C1794       C  0.73977674  0.91662908  0.54117376     0.97900
O1795       O  0.76124659  0.92606813  0.51875164    -0.70600
O1796       O  0.81900422  0.94514772  0.98676810    -0.74200
Al1797     Al  0.80581092  0.91036833  0.52312149     1.49000
C1798       C  0.82289537  0.97831540  0.98872382     0.93200
O1799       O  0.81897281  0.50557842  0.58563701    -0.80400
O1800       O  0.82665210  0.94962364  0.62929718    -0.73900
Al1801     Al  0.84389126  0.97184418  0.55581078     1.90100
O1802       O  0.77148113  0.97697971  0.59524684    -0.73000
O1803       O  0.80733165  0.88771037  0.60353846    -0.72900
O1804       O  0.74839573  0.91580263  0.57346894    -0.78500
O1805       O  0.79099676  0.86962927  0.55229675    -0.76700
O1806       O  0.81340718  0.93850680  0.55894157    -1.12900
O1807       O  0.84968811  0.89249181  0.52473620    -0.72000
C1808       C  0.87555866  0.91115977  0.51951858     0.98700
C1809       C  0.78883812  0.50446964  0.59743586     0.95100
Al1810     Al  0.79022894  0.93288457  0.59762209     1.55600
O1811       O  0.82155734  0.99245629  0.51808392    -0.76700
C1812       C  0.79391142  0.86419465  0.58520337     0.99200
C1813       C  0.85780507  0.95619160  0.62383975     0.94100
O1814       O  0.86909771  0.95490020  0.59338125    -0.82000
O1815       O  0.87813377  0.55144481  0.77662986    -0.81400
C1816       C  0.51070009  0.58781934  0.78996843     0.97900
O1817       O  0.98930206  0.57670757  0.76823990    -0.70600
O1818       O  0.93210712  0.55541404  0.73756814    -0.74200
Al1819     Al  0.94444114  0.58968438  0.77449591     1.49000
C1820       C  0.93032131  0.52206976  0.73869459     0.93200
O1821       O  0.93786452  0.99233683  0.83541946    -0.80400
O1822       O  0.92816001  0.54708274  0.87967295    -0.73900
Al1823     Al  0.91107101  0.52528085  0.80598951     1.90100
O1824       O  0.98449091  0.52283046  0.84332501    -0.73000
O1825       O  0.94515204  0.61021953  0.85552558    -0.72900
O1826       O  0.50403173  0.58619028  0.82272691    -0.78500
O1827       O  0.95822079  0.63046671  0.80422033    -0.76700
O1828       O  0.93964341  0.56028315  0.80955840    -1.12900
O1829       O  0.90003591  0.60467369  0.77764020    -0.72000
C1830       C  0.87591662  0.58425124  0.77039007     0.98700
C1831       C  0.96861385  0.99440890  0.84550553     0.95100
Al1832     Al  0.96373683  0.56598990  0.84770228     1.55600
O1833       O  0.93415110  0.50711632  0.76758040    -0.76700
C1834       C  0.95703581  0.63468933  0.83736208     0.99200
C1835       C  0.89684858  0.54041085  0.87402482     0.94100
O1836       O  0.88567392  0.54051618  0.84342552    -0.82000
O1837       O  0.68781594  0.75320255  0.66511619    -0.81400
C1838       C  0.70866448  0.61179403  0.66610066     0.97900
O1839       O  0.69540606  0.63515705  0.64771328    -0.70600
O1840       O  0.67851129  0.69766765  0.62102323    -0.74200
Al1841     Al  0.71410068  0.68013386  0.65374179     1.49000
C1842       C  0.64741870  0.70451559  0.62620824     0.93200
O1843       O  0.62884206  0.69320469  0.72359513    -0.80400
O1844       O  0.68283014  0.69258424  0.76396772    -0.73900
Al1845     Al  0.66125506  0.72010809  0.69442540     1.90100
O1846       O  0.65184645  0.64099889  0.72498282    -0.73000
O1847       O  0.74101341  0.67280406  0.73347808    -0.72900
O1848       O  0.71017822  0.61678483  0.69914467    -0.78500
O1849       O  0.75481715  0.66173497  0.67930179    -0.76700
O1850       O  0.69044996  0.68627815  0.69191042    -1.12900
O1851       O  0.73449882  0.72396905  0.65621079    -0.72000
C1852       C  0.71806089  0.75171876  0.65385006     0.98700
C1853       C  0.62725534  0.66058911  0.73099271     0.95100
Al1854     Al  0.69599156  0.65791436  0.72779267     1.55600
O1855       O  0.63611372  0.70329668  0.65663016    -0.76700
C1856       C  0.76196981  0.66087393  0.71207193     0.99200
C1857       C  0.67926736  0.72571099  0.76212948     0.94100
O1858       O  0.68338867  0.74026927  0.73306897    -0.82000
O1859       O  0.99900858  0.83655045  0.92992053    -0.81400
C1860       C  0.62874084  0.83825334  0.97825415     0.97900
O1861       O  0.60335680  0.85725977  0.97400802    -0.70600
O1862       O  0.54539380  0.88190241  0.94996790    -0.74200
Al1863     Al  0.55908158  0.84095690  0.97797877     1.49000
C1864       C  0.54678945  0.88806803  0.91722729     0.93200
O1865       O  0.57313414  0.80091945  0.87075992    -0.80400
O1866       O  0.56513982  0.74540852  0.91570826    -0.73900
Al1867     Al  0.53873792  0.81883250  0.90400356     1.90100
O1868       O  0.61675709  0.79466088  0.90513157    -0.73000
O1869       O  0.57167807  0.75856761  0.98296963    -0.72900
O1870       O  0.62673733  0.80538286  0.97228893    -0.78500
O1871       O  0.57247509  0.80600055  0.51399772    -0.76700
O1872       O  0.56353920  0.81267202  0.94186740    -1.12900
O1873       O  0.51370093  0.82729638  0.98434662    -0.72000
C1874       C  0.99147113  0.83634451  0.96243924     0.98700
C1875       C  0.60411348  0.79296235  0.87509942     0.95100
Al1876     Al  0.59278704  0.77854635  0.94398228     1.55600
O1877       O  0.55649931  0.86418137  0.89712120    -0.76700
C1878       C  0.57522748  0.77280679  0.51216742     0.99200
C1879       C  0.53464151  0.74701167  0.90495420     0.94100
O1880       O  0.51850848  0.77491669  0.90729364    -0.82000
C1881       C  0.62448843  0.71814116  0.59798699    -0.05000
C1882       C  0.62391734  0.70327551  0.56444632    -0.02100
C1883       C  0.60564690  0.71927856  0.53690715     0.02900
C1884       C  0.58748878  0.75093976  0.54256531    -0.05000
C1885       C  0.58474672  0.76314729  0.57720899    -0.02100
C1886       C  0.60280693  0.74687542  0.60467715     0.02900
C1887       C  0.64042323  0.67015757  0.55865992     0.37500
C1888       C  0.56387767  0.79309028  0.58488188     0.37500
C1889       C  0.59914033  0.76087467  0.63965017     0.35900
C1890       C  0.60668538  0.70281186  0.00280175     0.35900
N1891       N  0.59517435  0.77236365  0.66727029    -0.38900
N1892       N  0.60778303  0.68900209  0.97594156    -0.38900
N1893       N  0.54752345  0.81705250  0.59142788    -0.38300
N1894       N  0.65259849  0.64328696  0.55371776    -0.38300
C1895       C  0.66438965  0.74645577  0.79186341    -0.05000
C1896       C  0.66659469  0.73403149  0.82652101    -0.02100
C1897       C  0.64737789  0.74939266  0.85341535     0.02900
C1898       C  0.62538348  0.77789338  0.84637809    -0.05000
C1899       C  0.62409608  0.79123848  0.81209288    -0.02100
C1900       C  0.64405627  0.77650052  0.78532018     0.02900
C1901       C  0.68918223  0.70556384  0.83494820     0.37500
C1902       C  0.60198205  0.82016992  0.80409717     0.38700
C1903       C  0.64293797  0.79289602  0.75109972     0.35900
C1904       C  0.64955399  0.73396395  0.88802855     0.35900
N1905       N  0.64190894  0.80673805  0.72420649    -0.38900
N1906       N  0.65213305  0.72086688  0.91517478    -0.38900
N1907       N  0.58407350  0.84293811  0.79736235    -0.38300
N1908       N  0.70721434  0.68295428  0.84189409    -0.38300
C1909       C  0.84584454  0.59970519  0.75314045    -0.05000
C1910       C  0.84926836  0.61866638  0.72144487    -0.02100
C1911       C  0.82200111  0.63807946  0.70764056     0.02900
C1912       C  0.79136679  0.64026519  0.72621935    -0.05000
C1913       C  0.78813031  0.62041502  0.75789476    -0.02100
C1914       C  0.81490117  0.59977433  0.77054192     0.02900
C1915       C  0.88106012  0.61843541  0.70290174     0.37500
C1916       C  0.75756089  0.62035039  0.77844041     0.37500
C1917       C  0.81106879  0.57951658  0.80251549     0.35900
C1918       C  0.82605001  0.65659894  0.67478476     0.35900
N1919       N  0.80798958  0.56330106  0.82789077    -0.38900
N1920       N  0.82928424  0.67119359  0.64846810    -0.38900
N1921       N  0.73401739  0.61936138  0.79616613    -0.38300
N1922       N  0.90632362  0.61868950  0.68790463    -0.38300
C1923       C  0.54071570  0.60752574  0.77603068    -0.05000
C1924       C  0.53718764  0.63015433  0.74641480    -0.02100
C1925       C  0.56521400  0.64850343  0.73274738     0.02900
C1926       C  0.59714370  0.64471493  0.74804002    -0.05000
C1927       C  0.60073157  0.62322547  0.77812066    -0.02100
C1928       C  0.57271306  0.60468769  0.79193785     0.02900
C1929       C  0.00499152  0.63543629  0.72917562     0.37500
C1930       C  0.63322517  0.62035402  0.79536347     0.37500
C1931       C  0.57724867  0.58135515  0.82149129     0.35900
C1932       C  0.56142894  0.67019526  0.70173516     0.35900
N1933       N  0.58085447  0.56256028  0.84492230    -0.38900
N1934       N  0.55842367  0.68737815  0.67700858    -0.38900
N1935       N  0.65892528  0.61779055  0.80953445    -0.38300
N1936       N  0.98016557  0.64067932  0.71410179    -0.38300
C1937       C  0.97558453  0.66443393  0.85547298    -0.05000
C1938       C  0.98398141  0.69546330  0.83708414    -0.02100
C1939       C  0.50493086  0.72132941  0.85267176     0.02900
C1940       C  0.51720509  0.71724632  0.88727564    -0.05000
C1941       C  0.50866212  0.68698985  0.90604124    -0.02100
C1942       C  0.98857280  0.66048717  0.89037059     0.02900
C1943       C  0.97061500  0.70146187  0.80223053     0.37500
C1944       C  0.51952914  0.68377013  0.94223399     0.37500
C1945       C  0.98289570  0.62899638  0.91077695     0.35900
C1946       C  0.51405480  0.75227994  0.83269210     0.35900
N1947       N  0.97941866  0.60425969  0.92791459    -0.38900
N1948       N  0.52115282  0.77678653  0.81642254    -0.38900
N1949       N  0.52784526  0.68132338  0.97116506    -0.38300
N1950       N  0.95992751  0.70635543  0.77446314    -0.38300
C1951       C  0.53057953  0.91978089  0.90114020    -0.05000
C1952       C  0.00306964  0.93615863  0.91779399    -0.02100
C1953       C  0.98088753  0.95775762  0.89852343     0.02900
C1954       C  0.98683130  0.96514392  0.86283997    -0.05000
C1955       C  0.51624358  0.95186241  0.84722511    -0.02100
C1956       C  0.53794853  0.92945972  0.86614937     0.02900
C1957       C  0.99779246  0.93191164  0.95507546     0.37500
C1958       C  0.52453353  0.96195876  0.81166975     0.37500
C1959       C  0.56916280  0.91831337  0.85026187     0.35900
C1960       C  0.95262307  0.97338475  0.91626992     0.35900
N1961       N  0.59436219  0.90995815  0.83782568    -0.38900
N1962       N  0.93048840  0.98523187  0.93164958    -0.38900
N1963       N  0.53105902  0.97027288  0.78337809    -0.38300
N1964       N  0.99369382  0.92905931  0.98488400    -0.38300
C1965       C  0.91796477  0.50095506  0.70797265    -0.05000
C1966       C  0.92048245  0.51458064  0.67381653    -0.02100
C1967       C  0.90149467  0.49958533  0.64622529     0.02900
C1968       C  0.88067329  0.96959434  0.65207175    -0.05000
C1969       C  0.88169084  0.95326590  0.68494749    -0.02100
C1970       C  0.89979818  0.96882236  0.71290007     0.02900
C1971       C  0.94326458  0.54369555  0.66671090     0.37500
C1972       C  0.86535654  0.91947512  0.68963603     0.37500
C1973       C  0.89863878  0.95143116  0.74663214     0.35900
C1974       C  0.90299776  0.51628595  0.61217900     0.35900
N1975       N  0.89744920  0.93709409  0.77327941    -0.38900
N1976       N  0.90494062  0.53018419  0.58535537    -0.38900
N1977       N  0.85314209  0.89214915  0.69349341    -0.38300
N1978       N  0.96166774  0.56665068  0.66090830    -0.38300
C1979       C  0.87299585  0.52900777  0.90220158    -0.05000
C1980       C  0.84954150  0.00106813  0.89622686    -0.02100
C1981       C  0.82947172  0.98781775  0.92374854     0.02900
C1982       C  0.83435527  0.00008181  0.95805546    -0.05000
C1983       C  0.85419467  0.53118001  0.96290748    -0.02100
C1984       C  0.87297128  0.54561257  0.93491463     0.02900
C1985       C  0.84681374  0.98421903  0.86236203     0.37500
C1986       C  0.85600381  0.54878714  0.99642942     0.37500
C1987       C  0.89124415  0.57837190  0.93937452     0.35900
C1988       C  0.80384096  0.96128096  0.91675341     0.35900
N1989       N  0.90511295  0.60491348  0.94284730    -0.38900
N1990       N  0.78338453  0.94014703  0.91129140    -0.38900
N1991       N  0.85764912  0.56340494  0.52285741    -0.38300
N1992       N  0.84416348  0.97035931  0.83560612    -0.38300
C1993       C  0.77617569  0.83403491  0.60338887    -0.05000
C1994       C  0.76487915  0.80438799  0.58429980    -0.02100
C1995       C  0.74438151  0.77852519  0.60041161     0.02900
C1996       C  0.73491342  0.78156251  0.63590622    -0.05000
C1997       C  0.74591681  0.81061101  0.65517446    -0.02100
C1998       C  0.76635024  0.83667541  0.63939185     0.02900
C1999       C  0.77427915  0.80006696  0.54796769     0.37500
C2000       C  0.73590490  0.81370268  0.69152948     0.37500
C2001       C  0.77455556  0.86706598  0.66052389     0.35900
C2002       C  0.73246912  0.74890848  0.57997443     0.35900
N2003       N  0.77994264  0.89105220  0.67815745    -0.38900
N2004       N  0.72307100  0.72558840  0.56319761    -0.38900
N2005       N  0.72777671  0.81615616  0.72042303    -0.38300
N2006       N  0.78167391  0.79662586  0.51895897    -0.38300
C2007       C  0.77291142  0.53421686  0.61586433    -0.05000
C2008       C  0.76366749  0.53057553  0.65142177    -0.02100
C2009       C  0.74176602  0.55476009  0.66743445     0.02900
C2010       C  0.72892224  0.58350949  0.64824345    -0.05000
C2011       C  0.73940563  0.58732045  0.61251326    -0.02100
C2012       C  0.76088297  0.56271107  0.59672234     0.02900
C2013       C  0.77686070  0.50175041  0.67187278     0.37500
C2014       C  0.72971888  0.61692381  0.59116868     0.37500
C2015       C  0.76991775  0.56613978  0.56009327     0.35900
C2016       C  0.73229355  0.54936429  0.70365854     0.35900
N2017       N  0.77693841  0.56894961  0.53089449    -0.38900
N2018       N  0.72487359  0.54494789  0.73256812    -0.38900
N2019       N  0.72325815  0.64031922  0.57323050    -0.38300
N2020       N  0.78726705  0.97904024  0.68863385    -0.38300
C2021       C  0.95875210  0.85162236  0.97592343    -0.05000
C2022       C  0.93729548  0.87161947  0.95392371    -0.02100
C2023       C  0.91073595  0.89154286  0.96826967     0.02900
C2024       C  0.90577813  0.89331957  0.50478662    -0.05000
C2025       C  0.92553258  0.87189209  0.52655335    -0.02100
C2026       C  0.95094842  0.85042564  0.51230173     0.02900
C2027       C  0.94215097  0.87218887  0.91633941     0.37500
C2028       C  0.91905711  0.87137898  0.56387785     0.37500
C2029       C  0.96765966  0.82584088  0.53530407     0.35900
C2030       C  0.88738450  0.90858667  0.94484781     0.35900
N2031       N  0.48053485  0.80589922  0.55366261    -0.38900
N2032       N  0.86905667  0.92099212  0.92494592    -0.38900
N2033       N  0.91375793  0.87110748  0.59359794    -0.38300
N2034       N  0.94592690  0.87295884  0.88636216    -0.38300
C2035       C  0.70743037  0.90035330  0.52777962    -0.05000
C2036       C  0.69524619  0.90896736  0.99391900    -0.02100
C2037       C  0.67128514  0.88719944  0.97677894     0.02900
C2038       C  0.65957039  0.85595829  0.99266614    -0.05000
C2039       C  0.67142296  0.84759453  0.52646688    -0.02100
C2040       C  0.69309503  0.87090054  0.54478500     0.02900
C2041       C  0.70588601  0.94137111  0.97732807     0.37500
C2042       C  0.66178458  0.81486070  0.54270215     0.37500
C2043       C  0.69775643  0.86607284  0.58199573     0.35900
C2044       C  0.65880887  0.89676049  0.94234266     0.35900
N2045       N  0.69968882  0.86287666  0.61199533    -0.38900
N2046       N  0.64864024  0.90418056  0.91493544    -0.38900
N2047       N  0.65571549  0.78847092  0.55611986    -0.38300
N2048       N  0.71415113  0.96733854  0.96418720    -0.38300
loop_ 
_geom_bond_atom_site_label_1 
_geom_bond_atom_site_label_2 
_geom_bond_distance 
_geom_bond_site_symmetry_2 
_ccdc_geom_bond_type 
O1           C16   1.282       .  A
O1           Al9   2.005       .  S
C2           O12   1.281       .  A
C2            O3   1.261       .  A
C2          C243   1.507       .  S
O3           Al5   1.879       .  S
O4            C6   1.279       .  A
O4         Al261   1.991       .  S
Al5          O13   2.000       .  S
Al5          O15   1.877       .  S
Al5         O260   1.991   1_554  S
Al5          O14   1.767       .  S
C6          O275   1.249       .  A
C6          C190   1.507       .  S
O7           C17   1.279       .  A
O7         Al521   1.997   1_545  S
O8           C21   1.276       .  A
O8          Al18   1.982       .  S
Al9          O22   1.866       .  S
Al9          O19   1.867       .  S
Al9         O519   1.997       .  S
Al9          O14   1.752       .  S
O10         C529   1.253       .  A
O10         Al18   1.853       .  S
O11          C20   1.254       .  A
O11         Al18   1.876       .  S
O12         Al18   1.999       .  S
O13          C20   1.280       .  A
O14         Al18   1.758       .  S
O15          C16   1.260       .  A
C16         C232   1.498       .  S
C17         O522   1.253   1_545  A
C17         C215   1.488       .  S
O19         C262   1.249   1_554  A
C20         C201   1.515       .  S
C21          O22   1.252       .  A
C21         C176   1.494       .  S
O23          C38   1.281       .  A
O23         Al31   1.994       .  S
C24          O34   1.283       .  A
C24        O1049   1.256   1_455  A
C24         C131   1.501       .  S
O25        C1048   1.256       .  A
O25         Al27   1.868       .  S
O26          C28   1.277       .  A
O26         Al27   1.985       .  S
Al27         O35   2.002       .  S
Al27         O37   1.862       .  S
Al27         O36   1.759       .  S
C28          O41   1.253       .  A
C28         C173   1.504       .  S
O29          C39   1.278       .  A
O29        Al543   1.999       .  S
O30          C43   1.282       .  A
O30         Al40   2.000       .  S
Al31         O44   1.853       .  S
Al31         O41   1.874       .  S
Al31        O541   1.999   1_545  S
Al31         O36   1.749       .  S
O32         C551   1.253   1_545  A
O32         Al40   1.861       .  S
O33          C42   1.254       .  A
O33         Al40   1.878       .  S
O34       Al1064   2.012   1_455  S
O35          C42   1.280       .  A
O36         Al40   1.753       .  S
O37          C38   1.258       .  A
C38         C117   1.487       .  S
C39         O544   1.253       .  A
C39         C162   1.492       .  S
Al40       O1058   2.012       .  S
C42         C145   1.515       .  S
C43          O44   1.250       .  A
C43         C187   1.499       .  S
O45          C60   1.278       .  A
O45         Al53   1.987       .  S
C46          O56   1.280       .  A
C46          O47   1.255       .  A
C46         C218   1.520       .  S
O47         Al49   1.880       .  S
O48          C50   1.279       .  A
O48         Al49   2.002       .  S
Al49         O57   2.016       .  S
Al49         O59   1.856       .  S
Al49         O58   1.757       .  S
C50          O63   1.250       .  A
C50          C89   1.504       .  S
O51          C61   1.280       .  A
O51         Al53   1.984       .  S
O52          C65   1.278       .  A
O52         Al62   1.994       .  S
Al53         O66   1.878       .  S
Al53         O63   1.864       .  S
Al53         O58   1.749       .  S
O54          C61   1.258       .  A
O54         Al62   1.862       .  S
O55          C64   1.259       .  A
O55         Al62   1.879       .  S
O56         Al62   2.006       .  S
O57          C64   1.284       .  A
O58         Al62   1.763       .  S
O59          C60   1.255       .  A
C60         C204   1.485       .  S
C61         C134   1.487       .  S
C64         C120   1.511       .  S
C65          O66   1.253       .  A
C65         C103   1.514       .  S
O67          C82   1.281       .  A
O67       Al1099   1.991       .  S
C68          O78   1.280       .  A
C68          O69   1.258       .  A
C68         C246   1.494       .  S
O69         Al71   1.863       .  S
O70          C72   1.276       .  A
O70         Al71   1.976       .  S
Al71         O81   1.885       .  S
Al71        O335   1.993       .  S
Al71         O80   1.767       .  S
C72          O85   1.260       .  A
C72         C159   1.508       .  S
O73          C83   1.278       .  A
O73         Al75   1.997       .  S
O74          C87   1.277       .  A
O74         Al84   1.985       .  S
Al75         O88   1.858       .  S
Al75         O85   1.884       .  S
Al75       O1091   1.991   1_455  S
Al75         O80   1.764       .  S
O76          C83   1.253       .  A
O76         Al84   1.868       .  S
O77         C342   1.250       .  A
O77         Al84   1.872       .  S
O78         Al84   1.999       .  S
O79          C86   1.278       .  A
O79        Al327   1.993   1_554  S
O80         Al84   1.757       .  S
O81        C1106   1.264   1_455  A
C82        O1105   1.264       .  A
C82         C229   1.521       .  S
C83         C106   1.508       .  S
C86         O333   1.250   1_554  A
C86          C92   1.513       .  S
C87          O88   1.254       .  A
C87         C148   1.488       .  S
C89          C90   1.405       .  A
C89          C94   1.427       .  A
C90          C91   1.417       .  A
C90          C95   1.450       .  S
C91          C92   1.433       .  A
C91         C354   1.451       .  S
C92          C93   1.411       .  A
C93          C94   1.416       .  A
C93          C96   1.452       .  S
C94          C97   1.451       .  S
C95         N102   1.157       .  T
C96         N101   1.157       .  T
C97          N99   1.157       .  T
C98         C347   1.451       .  S
C98         N100   1.158       .  T
C103        C104   1.410       .  A
C103        C108   1.432       .  A
C104        C105   1.416       .  A
C104        C109   1.452       .  S
C105        C106   1.428       .  A
C105        C112   1.451       .  S
C106        C107   1.408       .  A
C107        C108   1.419       .  A
C107        C110   1.451       .  S
C108        C111   1.451       .  S
C109        N116   1.158       .  T
C110        N115   1.157       .  T
C111        N113   1.157       .  T
C112        N114   1.157       .  T
C117        C118   1.418       .  A
C117        C122   1.399       .  A
C118        C119   1.417       .  A
C118        C123   1.450       .  S
C119        C120   1.414       .  A
C119        C126   1.451       .  S
C120        C121   1.434       .  A
C121        C122   1.413       .  A
C121        C124   1.448       .  S
C122        C125   1.455       .  S
C123        N130   1.157       .  T
C124        N129   1.157       .  T
C125        N127   1.157       .  T
C126        N128   1.157       .  T
C131        C132   1.432       .  A
C131        C136   1.409       .  A
C132        C133   1.410       .  A
C132       C1161   1.450       .  S
C133        C134   1.401       .  A
C133        C140   1.455       .  S
C134        C135   1.420       .  A
C135        C136   1.415       .  A
C135        C138   1.449       .  S
C136        C139   1.451       .  S
C137       C1156   1.450       .  S
C137        N144   1.157       .  T
C138        N143   1.157       .  T
C139        N141   1.157       .  T
C140        N142   1.157       .  T
C145        C146   1.416       .  A
C145        C150   1.437       .  A
C146       C1171   1.416       .  A
C146        C151   1.451       .  S
C147        C148   1.417       .  A
C147       C1170   1.416   1_455  A
C147        C154   1.452       .  S
C148        C149   1.400       .  A
C149       C1174   1.415   1_455  A
C149        C152   1.453       .  S
C150       C1173   1.415       .  A
C150        C153   1.450       .  S
C151        N158   1.157       .  T
C152        N157   1.157       .  T
C153        N155   1.158       .  T
C154        N156   1.157       .  T
C159        C164   1.419       .  A
C159       C1184   1.418       .  A
C160        C161   1.417       .  A
C160       C1183   1.418       .  A
C160        C165   1.451       .  S
C161        C162   1.414       .  A
C161        C168   1.448       .  S
C162       C1187   1.413       .  A
C163        C164   1.416       .  A
C163       C1186   1.413   1_455  A
C163        C166   1.452       .  S
C164        C167   1.450       .  S
C165        N172   1.158       .  T
C166        N171   1.157       .  T
C167        N169   1.157       .  T
C168        N170   1.156       .  T
C173        C174   1.410       .  A
C173        C690   1.431   1_545  A
C174        C175   1.412   1_545  A
C174        C179   1.452       .  S
C175        C688   1.424       .  A
C175        C182   1.451   1_565  S
C176        C177   1.404       .  A
C176        C687   1.424       .  A
C177        C178   1.414       .  A
C177        C180   1.451       .  S
C178        C685   1.431       .  A
C178        C181   1.452       .  S
C179        N186   1.157       .  T
C180        N185   1.157       .  T
C181        N183   1.158       .  T
C182        N184   1.157       .  T
C187        C192   1.405       .  A
C187        C700   1.427       .  A
C188        C189   1.413       .  A
C188        C699   1.427       .  A
C188        C193   1.451       .  S
C189        C190   1.406       .  A
C189        C196   1.453       .  S
C190        C703   1.431       .  A
C191        C192   1.415       .  A
C191        C702   1.431       .  A
C191        C194   1.451       .  S
C192        C195   1.451       .  S
C193        N200   1.157       .  T
C194        N455   1.158       .  T
C195        N197   1.157       .  T
C196        N198   1.157       .  T
N199        C450   1.158   1_554  T
C201        C202   1.417       .  A
C201        C206   1.437       .  A
C202        C203   1.416       .  A
C202        C207   1.451       .  S
C203        C204   1.416       .  A
C203        C210   1.451       .  S
C204        C205   1.399       .  A
C205        C206   1.414       .  A
C205        C208   1.454       .  S
C206        C209   1.450       .  S
C207        N214   1.157       .  T
C208        N213   1.157       .  T
C209        N211   1.157       .  T
C210        N212   1.157       .  T
C215        C216   1.417       .  A
C215        C220   1.399       .  A
C216        C217   1.418       .  A
C216        C221   1.451       .  S
C217        C218   1.419       .  A
C217        C224   1.451       .  S
C218        C219   1.437       .  A
C219        C220   1.415       .  A
C219        C222   1.449       .  S
C220        C223   1.454       .  S
C221        N740   1.157   1_545  T
C222        N227   1.157       .  T
C223        N225   1.157       .  T
C224        N226   1.158       .  T
N228        C733   1.157       .  T
C229        C230   1.422       .  A
C229        C490   1.428       .  A
C230        C231   1.420       .  A
C230        C235   1.452       .  S
C231        C488   1.414       .  A
C231        C238   1.445       .  S
C232        C233   1.408       .  A
C232        C487   1.414   1_554  A
C233        C234   1.418       .  A
C233        C236   1.452       .  S
C234        C485   1.428   1_554  A
C234        C237   1.450       .  S
C235        N242   1.158       .  T
C236        N241   1.157       .  T
C237       N1263   1.157       .  T
C238        N240   1.155       .  T
N239       C1261   1.157       .  T
C243        C248   1.415       .  A
C243        C500   1.420   1_554  A
C244        C245   1.416       .  A
C244        C499   1.420       .  A
C244        C249   1.451       .  S
C245        C246   1.415       .  A
C245        C252   1.452       .  S
C246        C503   1.411       .  A
C247        C248   1.416       .  A
C247        C502   1.411   1_554  A
C247        C250   1.445       .  S
C248        C251   1.446       .  S
C249        N256   1.157       .  T
C250        N255   1.155       .  T
C251        N253   1.156       .  T
C252        N254   1.157       .  T
O257        C272   1.282       .  A
O257       Al265   2.005       .  S
C258        O268   1.281       .  A
C258        O259   1.261       .  A
C258        C499   1.507       .  S
O259       Al261   1.879       .  S
O260        C262   1.279       .  A
Al261       O269   2.000       .  S
Al261       O271   1.877       .  S
Al261       O270   1.767       .  S
C262        C446   1.507       .  S
O263        C273   1.279       .  A
O263       Al777   1.997   1_545  S
O264        C277   1.276       .  A
O264       Al274   1.982       .  S
Al265       O775   1.997       .  S
Al265       O278   1.866       .  S
Al265       O275   1.867       .  S
Al265       O270   1.752       .  S
O266        C785   1.253       .  A
O266       Al274   1.853       .  S
O267        C276   1.254       .  A
O267       Al274   1.876       .  S
O268       Al274   1.999       .  S
O269        C276   1.280       .  A
O270       Al274   1.758       .  S
O271        C272   1.260       .  A
C272        C488   1.498       .  S
C273        O778   1.253   1_545  A
C273        C471   1.488       .  S
C276        C457   1.515       .  S
C277        O278   1.252       .  A
C277        C432   1.494       .  S
O279        C294   1.281       .  A
O279       Al287   1.994       .  S
C280        O290   1.283       .  A
C280       O1305   1.256   1_455  A
C280        C387   1.501       .  S
O281       C1304   1.256       .  A
O281       Al283   1.868       .  S
O282        C284   1.277       .  A
O282       Al283   1.985       .  S
Al283       O291   2.002       .  S
Al283       O293   1.862       .  S
Al283       O292   1.759       .  S
C284        O297   1.253       .  A
C284        C429   1.504       .  S
O285        C295   1.278       .  A
O285       Al799   1.999       .  S
O286        C299   1.282       .  A
O286       Al296   2.000       .  S
Al287       O797   1.999   1_545  S
Al287       O300   1.853       .  S
Al287       O297   1.874       .  S
Al287       O292   1.749       .  S
O288        C807   1.253   1_545  A
O288       Al296   1.861       .  S
O289        C298   1.254       .  A
O289       Al296   1.878       .  S
O290      Al1320   2.012   1_455  S
O291        C298   1.280       .  A
O292       Al296   1.753       .  S
O293        C294   1.258       .  A
C294        C373   1.487       .  S
C295        O800   1.253       .  A
C295        C418   1.492       .  S
Al296      O1314   2.012       .  S
C298        C401   1.515       .  S
C299        O300   1.250       .  A
C299        C443   1.499       .  S
O301        C316   1.278       .  A
O301       Al309   1.987       .  S
C302        O312   1.280       .  A
C302        O303   1.255       .  A
C302        C474   1.520       .  S
O303       Al305   1.880       .  S
O304        C306   1.279       .  A
O304       Al305   2.002       .  S
Al305       O313   2.016       .  S
Al305       O315   1.856       .  S
Al305       O314   1.757       .  S
C306        O319   1.250       .  A
C306        C345   1.504       .  S
O307        C317   1.280       .  A
O307       Al309   1.984       .  S
O308        C321   1.278       .  A
O308       Al318   1.994       .  S
Al309       O322   1.878       .  S
Al309       O319   1.864       .  S
Al309       O314   1.749       .  S
O310        C317   1.258       .  A
O310       Al318   1.862       .  S
O311        C320   1.259       .  A
O311       Al318   1.879       .  S
O312       Al318   2.006       .  S
O313        C320   1.284       .  A
O314       Al318   1.763       .  S
O315        C316   1.255       .  A
C316        C460   1.485       .  S
C317        C390   1.487       .  S
C320        C376   1.511       .  S
C321        O322   1.253       .  A
C321        C359   1.514       .  S
O323        C338   1.281       .  A
O323      Al1355   1.991       .  S
C324        O334   1.280       .  A
C324        O325   1.258       .  A
C324        C502   1.494       .  S
O325       Al327   1.863       .  S
O326        C328   1.276       .  A
O326       Al327   1.976       .  S
Al327       O337   1.885       .  S
Al327       O336   1.767       .  S
C328        O341   1.260       .  A
C328        C415   1.508       .  S
O329        C339   1.278       .  A
O329       Al331   1.997       .  S
O330        C343   1.277       .  A
O330       Al340   1.985       .  S
Al331      O1347   1.991   1_455  S
Al331       O344   1.858       .  S
Al331       O341   1.884       .  S
Al331       O336   1.764       .  S
O332        C339   1.253       .  A
O332       Al340   1.868       .  S
O333       Al340   1.872       .  S
O334       Al340   1.999       .  S
O335        C342   1.278       .  A
O336       Al340   1.757       .  S
O337       C1362   1.264   1_455  A
C338       O1361   1.264       .  A
C338        C485   1.521       .  S
C339        C362   1.508       .  S
C342        C348   1.513       .  S
C343        O344   1.254       .  A
C343        C404   1.488       .  S
C345        C346   1.405       .  A
C345        C350   1.427       .  A
C346        C347   1.417       .  A
C346        C351   1.450       .  S
C347        C348   1.433       .  A
C348        C349   1.411       .  A
C349        C350   1.416       .  A
C349        C352   1.452       .  S
C350        C353   1.451       .  S
C351        N358   1.157       .  T
C352        N357   1.157       .  T
C353        N355   1.157       .  T
C354        N356   1.158   1_554  T
C359        C360   1.410       .  A
C359        C364   1.432       .  A
C360        C361   1.416       .  A
C360        C365   1.452       .  S
C361        C362   1.428       .  A
C361        C368   1.451       .  S
C362        C363   1.408       .  A
C363        C364   1.419       .  A
C363        C366   1.451       .  S
C364        C367   1.451       .  S
C365        N372   1.158       .  T
C366        N371   1.157       .  T
C367        N369   1.157       .  T
C368        N370   1.157       .  T
C373        C374   1.418       .  A
C373        C378   1.399       .  A
C374        C375   1.417       .  A
C374        C379   1.450       .  S
C375        C376   1.414       .  A
C375        C382   1.451       .  S
C376        C377   1.434       .  A
C377        C378   1.413       .  A
C377        C380   1.448       .  S
C378        C381   1.455       .  S
C379        N386   1.157       .  T
C380        N385   1.157       .  T
C381        N383   1.157       .  T
C382        N384   1.157       .  T
C387        C388   1.432       .  A
C387        C392   1.409       .  A
C388        C389   1.410       .  A
C388       C1417   1.450       .  S
C389        C390   1.401       .  A
C389        C396   1.455       .  S
C390        C391   1.420       .  A
C391        C392   1.415       .  A
C391        C394   1.449       .  S
C392        C395   1.451       .  S
C393       C1412   1.450       .  S
C393        N400   1.157       .  T
C394        N399   1.157       .  T
C395        N397   1.157       .  T
C396        N398   1.157       .  T
C401        C402   1.416       .  A
C401        C406   1.437       .  A
C402       C1427   1.416       .  A
C402        C407   1.451       .  S
C403       C1426   1.416   1_455  A
C403        C404   1.417       .  A
C403        C410   1.452       .  S
C404        C405   1.400       .  A
C405       C1430   1.415   1_455  A
C405        C408   1.453       .  S
C406       C1429   1.415       .  A
C406        C409   1.450       .  S
C407        N414   1.157       .  T
C408        N413   1.157       .  T
C409        N411   1.158       .  T
C410        N412   1.157       .  T
C415       C1440   1.418       .  A
C415        C420   1.419       .  A
C416       C1439   1.418       .  A
C416        C417   1.416       .  A
C416        C421   1.451       .  S
C417        C418   1.414       .  A
C417        C424   1.448       .  S
C418       C1443   1.413       .  A
C419       C1442   1.413   1_455  A
C419        C420   1.416       .  A
C419        C422   1.452       .  S
C420        C423   1.450       .  S
C421        N428   1.158       .  T
C422        N427   1.157       .  T
C423        N425   1.157       .  T
C424        N426   1.156       .  T
C429        C430   1.410       .  A
C429        C946   1.431   1_545  A
C430        C431   1.412   1_545  A
C430        C435   1.452       .  S
C431        C944   1.424       .  A
C431        C438   1.451   1_565  S
C432        C943   1.424       .  A
C432        C433   1.404       .  A
C433        C434   1.414       .  A
C433        C436   1.451       .  S
C434        C941   1.431       .  A
C434        C437   1.452       .  S
C435        N442   1.157       .  T
C436        N441   1.157       .  T
C437        N439   1.158       .  T
C438        N440   1.157       .  T
C443        C956   1.427       .  A
C443        C448   1.405       .  A
C444        C955   1.427       .  A
C444        C445   1.413       .  A
C444        C449   1.451       .  S
C445        C446   1.406       .  A
C445        C452   1.453       .  S
C446        C959   1.431       .  A
C447        C958   1.431       .  A
C447        C448   1.415       .  A
C447        C450   1.451       .  S
C448        C451   1.451       .  S
C449        N456   1.157       .  T
C451        N453   1.157       .  T
C452        N454   1.157       .  T
C457        C458   1.417       .  A
C457        C462   1.437       .  A
C458        C459   1.416       .  A
C458        C463   1.451       .  S
C459        C460   1.416       .  A
C459        C466   1.451       .  S
C460        C461   1.399       .  A
C461        C462   1.414       .  A
C461        C464   1.454       .  S
C462        C465   1.450       .  S
C463        N470   1.157       .  T
C464        N469   1.157       .  T
C465        N467   1.157       .  T
C466        N468   1.157       .  T
C471        C472   1.417       .  A
C471        C476   1.399       .  A
C472        C473   1.418       .  A
C472        C477   1.451       .  S
C473        C474   1.419       .  A
C473        C480   1.452       .  S
C474        C475   1.437       .  A
C475        C476   1.415       .  A
C475        C478   1.449       .  S
C476        C479   1.454       .  S
C477        N996   1.157   1_545  T
C478        N483   1.157       .  T
C479        N481   1.157       .  T
C480        N482   1.158       .  T
N484        C989   1.157       .  T
C485        C486   1.422       .  A
C486        C487   1.420       .  A
C486        C491   1.452       .  S
C487        C494   1.445       .  S
C488        C489   1.408       .  A
C489        C490   1.418       .  A
C489        C492   1.452       .  S
C490        C493   1.450       .  S
C491        N498   1.158       .  T
C492        N497   1.157       .  T
C493       N1519   1.157       .  T
C494        N496   1.155       .  T
N495       C1517   1.157       .  T
C499        C504   1.415       .  A
C500        C501   1.416       .  A
C500        C505   1.451       .  S
C501        C502   1.415       .  A
C501        C508   1.452       .  S
C503        C504   1.416       .  A
C503        C506   1.445       .  S
C504        C507   1.446       .  S
C505        N512   1.157       .  T
C506        N511   1.155       .  T
C507        N509   1.156       .  T
C508        N510   1.157       .  T
O513        C528   1.282       .  A
O513       Al521   2.005       .  S
C514        O524   1.281       .  A
C514        O515   1.261       .  A
C514        C755   1.507       .  S
O515       Al517   1.879       .  S
O516        C518   1.279       .  A
O516       Al773   1.991       .  S
Al517       O772   1.991   1_554  S
Al517       O525   2.000       .  S
Al517       O527   1.877       .  S
Al517       O526   1.767       .  S
C518        O787   1.249       .  A
C518        C702   1.507   1_565  S
O519        C529   1.279       .  A
O520        C533   1.276       .  A
O520       Al530   1.982       .  S
Al521       O534   1.866       .  S
Al521       O531   1.867       .  S
Al521       O526   1.752       .  S
O522       Al530   1.853       .  S
O523        C532   1.254       .  A
O523       Al530   1.876       .  S
O524       Al530   1.999       .  S
O525        C532   1.280       .  A
O526       Al530   1.758       .  S
O527        C528   1.260       .  A
C528        C744   1.498       .  S
C529        C727   1.488       .  S
O531        C774   1.249   1_554  A
C532        C713   1.515       .  S
C533        O534   1.252       .  A
C533        C688   1.494       .  S
O535        C550   1.281       .  A
O535       Al543   1.994       .  S
C536        O546   1.283       .  A
C536       O1561   1.256   1_455  A
C536        C643   1.501       .  S
O537       C1560   1.256       .  A
O537       Al539   1.868       .  S
O538        C540   1.277       .  A
O538       Al539   1.985       .  S
Al539       O547   2.002       .  S
Al539       O549   1.862       .  S
Al539       O548   1.759       .  S
C540        O553   1.253       .  A
C540        C685   1.504       .  S
O541        C551   1.278       .  A
O542        C555   1.282       .  A
O542       Al552   2.000       .  S
Al543       O556   1.853       .  S
Al543       O553   1.874       .  S
Al543       O548   1.749       .  S
O544       Al552   1.861       .  S
O545        C554   1.254       .  A
O545       Al552   1.878       .  S
O546      Al1576   2.012   1_455  S
O547        C554   1.280       .  A
O548       Al552   1.753       .  S
O549        C550   1.258       .  A
C550        C629   1.487       .  S
C551        C674   1.492       .  S
Al552      O1570   2.012       .  S
C554        C657   1.515       .  S
C555        O556   1.250       .  A
C555        C699   1.499       .  S
O557        C572   1.278       .  A
O557       Al565   1.987       .  S
C558        O568   1.280       .  A
C558        O559   1.255       .  A
C558        C730   1.520       .  S
O559       Al561   1.880       .  S
O560        C562   1.279       .  A
O560       Al561   2.002       .  S
Al561       O569   2.016       .  S
Al561       O571   1.856       .  S
Al561       O570   1.757       .  S
C562        O575   1.250       .  A
C562        C601   1.504       .  S
O563        C573   1.280       .  A
O563       Al565   1.984       .  S
O564        C577   1.278       .  A
O564       Al574   1.994       .  S
Al565       O578   1.878       .  S
Al565       O575   1.864       .  S
Al565       O570   1.749       .  S
O566        C573   1.258       .  A
O566       Al574   1.862       .  S
O567        C576   1.259       .  A
O567       Al574   1.879       .  S
O568       Al574   2.006       .  S
O569        C576   1.284       .  A
O570       Al574   1.763       .  S
O571        C572   1.255       .  A
C572        C716   1.485       .  S
C573        C646   1.487       .  S
C576        C632   1.511       .  S
C577        O578   1.253       .  A
C577        C615   1.514       .  S
O579        C594   1.281       .  A
O579      Al1611   1.991       .  S
C580        O590   1.280       .  A
C580        O581   1.258       .  A
C580        C758   1.494       .  S
O581       Al583   1.863       .  S
O582        C584   1.276       .  A
O582       Al583   1.976       .  S
Al583       O847   1.993       .  S
Al583       O593   1.885       .  S
Al583       O592   1.767       .  S
C584        O597   1.260       .  A
C584        C671   1.508       .  S
O585        C595   1.278       .  A
O585       Al587   1.997       .  S
O586        C599   1.277       .  A
O586       Al596   1.985       .  S
Al587      O1603   1.991   1_455  S
Al587       O600   1.858       .  S
Al587       O597   1.884       .  S
Al587       O592   1.764       .  S
O588        C595   1.253       .  A
O588       Al596   1.868       .  S
O589        C854   1.250       .  A
O589       Al596   1.872       .  S
O590       Al596   1.999       .  S
O591        C598   1.278       .  A
O591       Al839   1.993   1_554  S
O592       Al596   1.757       .  S
O593       C1618   1.264   1_455  A
C594       O1617   1.264       .  A
C594        C741   1.521       .  S
C595        C618   1.508       .  S
C598        O845   1.250   1_554  A
C598        C604   1.513       .  S
C599        O600   1.254       .  A
C599        C660   1.488       .  S
C601        C602   1.405       .  A
C601        C606   1.427       .  A
C602        C603   1.417       .  A
C602        C607   1.450       .  S
C603        C604   1.433       .  A
C603        C866   1.451       .  S
C604        C605   1.411       .  A
C605        C606   1.416       .  A
C605        C608   1.452       .  S
C606        C609   1.451       .  S
C607        N614   1.157       .  T
C608        N613   1.157       .  T
C609        N611   1.157       .  T
C610        C859   1.451       .  S
C610        N612   1.158       .  T
C615        C616   1.410       .  A
C615        C620   1.432       .  A
C616        C617   1.416       .  A
C616        C621   1.452       .  S
C617        C618   1.428       .  A
C617        C624   1.451       .  S
C618        C619   1.408       .  A
C619        C620   1.419       .  A
C619        C622   1.451       .  S
C620        C623   1.451       .  S
C621        N628   1.158       .  T
C622        N627   1.157       .  T
C623        N625   1.157       .  T
C624        N626   1.157       .  T
C629        C630   1.418       .  A
C629        C634   1.399       .  A
C630        C631   1.417       .  A
C630        C635   1.450       .  S
C631        C632   1.414       .  A
C631        C638   1.451       .  S
C632        C633   1.434       .  A
C633        C634   1.413       .  A
C633        C636   1.448       .  S
C634        C637   1.455       .  S
C635        N642   1.157       .  T
C636        N641   1.157       .  T
C637        N639   1.157       .  T
C638        N640   1.157       .  T
C643        C644   1.432       .  A
C643        C648   1.409       .  A
C644        C645   1.410       .  A
C644       C1673   1.450       .  S
C645        C646   1.401       .  A
C645        C652   1.455       .  S
C646        C647   1.420       .  A
C647        C648   1.415       .  A
C647        C650   1.449       .  S
C648        C651   1.451       .  S
C649       C1668   1.450       .  S
C649        N656   1.157       .  T
C650        N655   1.157       .  T
C651        N653   1.157       .  T
C652        N654   1.157       .  T
C657        C658   1.416       .  A
C657        C662   1.437       .  A
C658       C1683   1.416       .  A
C658        C663   1.451       .  S
C659       C1682   1.416   1_455  A
C659        C660   1.417       .  A
C659        C666   1.452       .  S
C660        C661   1.400       .  A
C661       C1686   1.415   1_455  A
C661        C664   1.453       .  S
C662       C1685   1.415       .  A
C662        C665   1.450       .  S
C663        N670   1.157       .  T
C664        N669   1.157       .  T
C665        N667   1.158       .  T
C666        N668   1.157       .  T
C671       C1696   1.418       .  A
C671        C676   1.419       .  A
C672       C1695   1.418       .  A
C672        C673   1.416       .  A
C672        C677   1.451       .  S
C673        C674   1.414       .  A
C673        C680   1.448       .  S
C674       C1699   1.413       .  A
C675       C1698   1.413   1_455  A
C675        C676   1.416       .  A
C675        C678   1.452       .  S
C676        C679   1.450       .  S
C677        N684   1.158       .  T
C678        N683   1.157       .  T
C679        N681   1.157       .  T
C680        N682   1.156       .  T
C685        C686   1.410       .  A
C686        C687   1.412       .  A
C686        C691   1.452       .  S
C687        C694   1.451       .  S
C688        C689   1.404       .  A
C689        C690   1.414       .  A
C689        C692   1.451       .  S
C690        C693   1.452       .  S
C691        N698   1.157       .  T
C692        N697   1.157       .  T
C693        N695   1.158       .  T
C694        N696   1.157       .  T
C699        C704   1.405       .  A
C700        C701   1.413   1_545  A
C700        C705   1.451   1_545  S
C701        C702   1.406   1_565  A
C701        C708   1.453       .  S
C703        C704   1.415       .  A
C703        C706   1.451       .  S
C704        C707   1.451       .  S
C705        N712   1.157       .  T
C706        N967   1.158       .  T
C707        N709   1.157       .  T
C708        N710   1.157       .  T
N711        C962   1.158   1_554  T
C713        C714   1.417       .  A
C713        C718   1.437       .  A
C714        C715   1.416       .  A
C714        C719   1.451       .  S
C715        C716   1.416       .  A
C715        C722   1.451       .  S
C716        C717   1.399       .  A
C717        C718   1.414       .  A
C717        C720   1.454       .  S
C718        C721   1.450       .  S
C719        N726   1.157       .  T
C720        N725   1.157       .  T
C721        N723   1.157       .  T
C722        N724   1.157       .  T
C727        C728   1.417       .  A
C727        C732   1.399       .  A
C728        C729   1.418       .  A
C728        C733   1.451       .  S
C729        C730   1.419       .  A
C729        C736   1.452       .  S
C730        C731   1.437       .  A
C731        C732   1.415       .  A
C731        C734   1.449       .  S
C732        C735   1.454       .  S
C734        N739   1.157       .  T
C735        N737   1.157       .  T
C736        N738   1.158       .  T
C741        C742   1.422       .  A
C741       C1002   1.428       .  A
C742        C743   1.420       .  A
C742        C747   1.452       .  S
C743       C1000   1.414       .  A
C743        C750   1.445       .  S
C744        C999   1.414   1_554  A
C744        C745   1.408       .  A
C745        C746   1.418       .  A
C745        C748   1.452       .  S
C746        C997   1.428   1_554  A
C746        C749   1.450       .  S
C747        N754   1.158       .  T
C748        N753   1.157       .  T
C749       N1775   1.157       .  T
C750        N752   1.155       .  T
N751       C1773   1.157       .  T
C755       C1012   1.420   1_554  A
C755        C760   1.415       .  A
C756       C1011   1.420       .  A
C756        C757   1.416       .  A
C756        C761   1.451       .  S
C757        C758   1.415       .  A
C757        C764   1.452       .  S
C758       C1015   1.411       .  A
C759       C1014   1.411   1_554  A
C759        C760   1.416       .  A
C759        C762   1.445       .  S
C760        C763   1.446       .  S
C761        N768   1.157       .  T
C762        N767   1.155       .  T
C763        N765   1.156       .  T
C764        N766   1.157       .  T
O769        C784   1.282       .  A
O769       Al777   2.005       .  S
C770        O780   1.281       .  A
C770        O771   1.261       .  A
C770       C1011   1.507       .  S
O771       Al773   1.879       .  S
O772        C774   1.279       .  A
Al773       O781   2.000       .  S
Al773       O783   1.877       .  S
Al773       O782   1.767       .  S
C774        C958   1.507   1_565  S
O775        C785   1.279       .  A
O776        C789   1.276       .  A
O776       Al786   1.982       .  S
Al777       O790   1.866       .  S
Al777       O787   1.867       .  S
Al777       O782   1.752       .  S
O778       Al786   1.853       .  S
O779        C788   1.254       .  A
O779       Al786   1.876       .  S
O780       Al786   1.999       .  S
O781        C788   1.280       .  A
O782       Al786   1.758       .  S
O783        C784   1.260       .  A
C784       C1000   1.498       .  S
C785        C983   1.488       .  S
C788        C969   1.515       .  S
C789        O790   1.252       .  A
C789        C944   1.494       .  S
O791        C806   1.281       .  A
O791       Al799   1.994       .  S
C792        O802   1.283       .  A
C792       O1817   1.256   1_455  A
C792        C899   1.501       .  S
O793       C1816   1.256       .  A
O793       Al795   1.868       .  S
O794        C796   1.277       .  A
O794       Al795   1.985       .  S
Al795       O803   2.002       .  S
Al795       O805   1.862       .  S
Al795       O804   1.759       .  S
C796        O809   1.253       .  A
C796        C941   1.504       .  S
O797        C807   1.278       .  A
O798        C811   1.282       .  A
O798       Al808   2.000       .  S
Al799       O812   1.853       .  S
Al799       O809   1.874       .  S
Al799       O804   1.749       .  S
O800       Al808   1.861       .  S
O801        C810   1.254       .  A
O801       Al808   1.878       .  S
O802      Al1832   2.012   1_455  S
O803        C810   1.280       .  A
O804       Al808   1.753       .  S
O805        C806   1.258       .  A
C806        C885   1.487       .  S
C807        C930   1.492       .  S
Al808      O1826   2.012       .  S
C810        C913   1.515       .  S
C811        O812   1.250       .  A
C811        C955   1.499       .  S
O813        C828   1.278       .  A
O813       Al821   1.987       .  S
C814        O824   1.280       .  A
C814        O815   1.255       .  A
C814        C986   1.520       .  S
O815       Al817   1.880       .  S
O816        C818   1.279       .  A
O816       Al817   2.002       .  S
Al817       O825   2.016       .  S
Al817       O827   1.856       .  S
Al817       O826   1.757       .  S
C818        O831   1.250       .  A
C818        C857   1.504       .  S
O819        C829   1.280       .  A
O819       Al821   1.984       .  S
O820        C833   1.278       .  A
O820       Al830   1.994       .  S
Al821       O834   1.878       .  S
Al821       O831   1.864       .  S
Al821       O826   1.749       .  S
O822        C829   1.258       .  A
O822       Al830   1.862       .  S
O823        C832   1.259       .  A
O823       Al830   1.879       .  S
O824       Al830   2.006       .  S
O825        C832   1.284       .  A
O826       Al830   1.763       .  S
O827        C828   1.255       .  A
C828        C972   1.485       .  S
C829        C902   1.487       .  S
C832        C888   1.511       .  S
C833        O834   1.253       .  A
C833        C871   1.514       .  S
O835        C850   1.281       .  A
O835      Al1867   1.991       .  S
C836        O846   1.280       .  A
C836        O837   1.258       .  A
C836       C1014   1.494       .  S
O837       Al839   1.863       .  S
O838        C840   1.276       .  A
O838       Al839   1.976       .  S
Al839       O849   1.885       .  S
Al839       O848   1.767       .  S
C840        O853   1.260       .  A
C840        C927   1.508       .  S
O841        C851   1.278       .  A
O841       Al843   1.997       .  S
O842        C855   1.277       .  A
O842       Al852   1.985       .  S
Al843      O1859   1.991   1_455  S
Al843       O856   1.858       .  S
Al843       O853   1.884       .  S
Al843       O848   1.764       .  S
O844        C851   1.253       .  A
O844       Al852   1.868       .  S
O845       Al852   1.872       .  S
O846       Al852   1.999       .  S
O847        C854   1.278       .  A
O848       Al852   1.757       .  S
O849       C1874   1.264   1_455  A
C850       O1873   1.264       .  A
C850        C997   1.521       .  S
C851        C874   1.508       .  S
C854        C860   1.513       .  S
C855        O856   1.254       .  A
C855        C916   1.488       .  S
C857        C858   1.405       .  A
C857        C862   1.427       .  A
C858        C859   1.417       .  A
C858        C863   1.450       .  S
C859        C860   1.433       .  A
C860        C861   1.411       .  A
C861        C862   1.416       .  A
C861        C864   1.452       .  S
C862        C865   1.451       .  S
C863        N870   1.157       .  T
C864        N869   1.157       .  T
C865        N867   1.157       .  T
C866        N868   1.158   1_554  T
C871        C872   1.410       .  A
C871        C876   1.432       .  A
C872        C873   1.416       .  A
C872        C877   1.452       .  S
C873        C874   1.428       .  A
C873        C880   1.451       .  S
C874        C875   1.408       .  A
C875        C876   1.419       .  A
C875        C878   1.451       .  S
C876        C879   1.451       .  S
C877        N884   1.158       .  T
C878        N883   1.157       .  T
C879        N881   1.157       .  T
C880        N882   1.157       .  T
C885        C886   1.418       .  A
C885        C890   1.399       .  A
C886        C887   1.417       .  A
C886        C891   1.450       .  S
C887        C888   1.414       .  A
C887        C894   1.451       .  S
C888        C889   1.434       .  A
C889        C890   1.413       .  A
C889        C892   1.448       .  S
C890        C893   1.455       .  S
C891        N898   1.157       .  T
C892        N897   1.157       .  T
C893        N895   1.157       .  T
C894        N896   1.157       .  T
C899        C900   1.432       .  A
C899        C904   1.409       .  A
C900        C901   1.410       .  A
C900       C1929   1.450       .  S
C901        C902   1.401       .  A
C901        C908   1.455       .  S
C902        C903   1.420       .  A
C903        C904   1.415       .  A
C903        C906   1.449       .  S
C904        C907   1.451       .  S
C905       C1924   1.450       .  S
C905        N912   1.157       .  T
C906        N911   1.157       .  T
C907        N909   1.157       .  T
C908        N910   1.157       .  T
C913        C914   1.416       .  A
C913        C918   1.437       .  A
C914       C1939   1.416       .  A
C914        C919   1.451       .  S
C915       C1938   1.416   1_455  A
C915        C916   1.417       .  A
C915        C922   1.452       .  S
C916        C917   1.400       .  A
C917       C1942   1.415   1_455  A
C917        C920   1.453       .  S
C918       C1941   1.415       .  A
C918        C921   1.450       .  S
C919        N926   1.157       .  T
C920        N925   1.157       .  T
C921        N923   1.158       .  T
C922        N924   1.157       .  T
C927       C1952   1.418       .  A
C927        C932   1.419       .  A
C928       C1951   1.418       .  A
C928        C929   1.416       .  A
C928        C933   1.451       .  S
C929        C930   1.414       .  A
C929        C936   1.448       .  S
C930       C1955   1.413       .  A
C931       C1954   1.413   1_455  A
C931        C932   1.416       .  A
C931        C934   1.452       .  S
C932        C935   1.450       .  S
C933        N940   1.158       .  T
C934        N939   1.157       .  T
C935        N937   1.157       .  T
C936        N938   1.156       .  T
C941        C942   1.410       .  A
C942        C943   1.412       .  A
C942        C947   1.452       .  S
C943        C950   1.451       .  S
C944        C945   1.404       .  A
C945        C946   1.414       .  A
C945        C948   1.451       .  S
C946        C949   1.452       .  S
C947        N954   1.157       .  T
C948        N953   1.157       .  T
C949        N951   1.158       .  T
C950        N952   1.157       .  T
C955        C960   1.405       .  A
C956        C957   1.413   1_545  A
C956        C961   1.451   1_545  S
C957        C958   1.406   1_565  A
C957        C964   1.453       .  S
C959        C960   1.415       .  A
C959        C962   1.451       .  S
C960        C963   1.451       .  S
C961        N968   1.157       .  T
C963        N965   1.157       .  T
C964        N966   1.157       .  T
C969        C970   1.417       .  A
C969        C974   1.437       .  A
C970        C971   1.416       .  A
C970        C975   1.451       .  S
C971        C972   1.416       .  A
C971        C978   1.451       .  S
C972        C973   1.399       .  A
C973        C974   1.414       .  A
C973        C976   1.454       .  S
C974        C977   1.450       .  S
C975        N982   1.157       .  T
C976        N981   1.157       .  T
C977        N979   1.157       .  T
C978        N980   1.157       .  T
C983        C984   1.417       .  A
C983        C988   1.399       .  A
C984        C985   1.418       .  A
C984        C989   1.451       .  S
C985        C986   1.419       .  A
C985        C992   1.452       .  S
C986        C987   1.437       .  A
C987        C988   1.415       .  A
C987        C990   1.449       .  S
C988        C991   1.454       .  S
C990        N995   1.157       .  T
C991        N993   1.157       .  T
C992        N994   1.158       .  T
C997        C998   1.422       .  A
C998        C999   1.420       .  A
C998       C1003   1.452       .  S
C999       C1006   1.445       .  S
C1000      C1001   1.408       .  A
C1001      C1002   1.418       .  A
C1001      C1004   1.452       .  S
C1002      C1005   1.450       .  S
C1003      N1010   1.158       .  T
C1004      N1009   1.157       .  T
C1005      N2031   1.157       .  T
C1006      N1008   1.155       .  T
N1007      C2029   1.157       .  T
C1011      C1016   1.415       .  A
C1012      C1013   1.416       .  A
C1012      C1017   1.451       .  S
C1013      C1014   1.415       .  A
C1013      C1020   1.452       .  S
C1015      C1016   1.416       .  A
C1015      C1018   1.445       .  S
C1016      C1019   1.446       .  S
C1017      N1024   1.157       .  T
C1018      N1023   1.155       .  T
C1019      N1021   1.156       .  T
C1020      N1022   1.157       .  T
O1025      C1040   1.282       .  A
O1025     Al1033   2.005       .  S
C1026      O1036   1.281       .  A
C1026      O1027   1.261       .  A
C1026      C1267   1.507       .  S
O1027     Al1029   1.879       .  S
O1028      C1030   1.279       .  A
O1028     Al1285   1.991       .  S
Al1029     O1284   1.991   1_554  S
Al1029     O1037   2.000       .  S
Al1029     O1039   1.877       .  S
Al1029     O1038   1.767       .  S
C1030      O1299   1.249       .  A
C1030      C1214   1.507       .  S
O1031      C1041   1.279       .  A
O1031     Al1545   1.997   1_545  S
O1032      C1045   1.276       .  A
O1032     Al1042   1.982       .  S
Al1033     O1543   1.997       .  S
Al1033     O1046   1.866       .  S
Al1033     O1043   1.867       .  S
Al1033     O1038   1.752       .  S
O1034      C1553   1.253       .  A
O1034     Al1042   1.853       .  S
O1035      C1044   1.254       .  A
O1035     Al1042   1.876       .  S
O1036     Al1042   1.999       .  S
O1037      C1044   1.280       .  A
O1038     Al1042   1.758       .  S
O1039      C1040   1.260       .  A
C1040      C1256   1.498       .  S
C1041      O1546   1.253   1_545  A
C1041      C1239   1.488       .  S
O1043      C1286   1.249   1_554  A
C1044      C1225   1.515       .  S
C1045      O1046   1.252       .  A
C1045      C1200   1.494       .  S
O1047      C1062   1.281       .  A
O1047     Al1055   1.994       .  S
C1048      O1058   1.283       .  A
C1048      C1155   1.501       .  S
O1049     Al1051   1.868       .  S
O1050      C1052   1.277       .  A
O1050     Al1051   1.985       .  S
Al1051     O1059   2.002       .  S
Al1051     O1061   1.862       .  S
Al1051     O1060   1.759       .  S
C1052      O1065   1.253       .  A
C1052      C1197   1.504       .  S
O1053      C1063   1.278       .  A
O1053     Al1567   1.999       .  S
O1054      C1067   1.282       .  A
O1054     Al1064   2.000       .  S
Al1055     O1565   1.999   1_545  S
Al1055     O1068   1.853       .  S
Al1055     O1065   1.874       .  S
Al1055     O1060   1.749       .  S
O1056      C1575   1.253   1_545  A
O1056     Al1064   1.861       .  S
O1057      C1066   1.254       .  A
O1057     Al1064   1.878       .  S
O1059      C1066   1.280       .  A
O1060     Al1064   1.753       .  S
O1061      C1062   1.258       .  A
C1062      C1141   1.487       .  S
C1063      O1568   1.253       .  A
C1063      C1186   1.492       .  S
C1066      C1169   1.515       .  S
C1067      O1068   1.250       .  A
C1067      C1211   1.499       .  S
O1069      C1084   1.278       .  A
O1069     Al1077   1.987       .  S
C1070      O1080   1.280       .  A
C1070      O1071   1.255       .  A
C1070      C1242   1.520       .  S
O1071     Al1073   1.880       .  S
O1072      C1074   1.279       .  A
O1072     Al1073   2.002       .  S
Al1073     O1081   2.016       .  S
Al1073     O1083   1.856       .  S
Al1073     O1082   1.757       .  S
C1074      O1087   1.250       .  A
C1074      C1113   1.504       .  S
O1075      C1085   1.280       .  A
O1075     Al1077   1.984       .  S
O1076      C1089   1.278       .  A
O1076     Al1086   1.994       .  S
Al1077     O1090   1.878       .  S
Al1077     O1087   1.864       .  S
Al1077     O1082   1.749       .  S
O1078      C1085   1.258       .  A
O1078     Al1086   1.862       .  S
O1079      C1088   1.259       .  A
O1079     Al1086   1.879       .  S
O1080     Al1086   2.006       .  S
O1081      C1088   1.284       .  A
O1082     Al1086   1.763       .  S
O1083      C1084   1.255       .  A
C1084      C1228   1.485       .  S
C1085      C1158   1.487       .  S
C1088      C1144   1.511       .  S
C1089      O1090   1.253       .  A
C1089      C1127   1.514       .  S
O1091      C1106   1.281       .  A
C1092      O1102   1.280       .  A
C1092      O1093   1.258       .  A
C1092      C1270   1.494       .  S
O1093     Al1095   1.863       .  S
O1094      C1096   1.276       .  A
O1094     Al1095   1.976       .  S
Al1095     O1359   1.993       .  S
Al1095     O1105   1.885       .  S
Al1095     O1104   1.767       .  S
C1096      O1109   1.260       .  A
C1096      C1183   1.508       .  S
O1097      C1107   1.278       .  A
O1097     Al1099   1.997       .  S
O1098      C1111   1.277       .  A
O1098     Al1108   1.985       .  S
Al1099     O1112   1.858       .  S
Al1099     O1109   1.884       .  S
Al1099     O1104   1.764       .  S
O1100      C1107   1.253       .  A
O1100     Al1108   1.868       .  S
O1101      C1366   1.250       .  A
O1101     Al1108   1.872       .  S
O1102     Al1108   1.999       .  S
O1103      C1110   1.278       .  A
O1103     Al1351   1.993   1_554  S
O1104     Al1108   1.757       .  S
C1106      C1253   1.521       .  S
C1107      C1130   1.508       .  S
C1110      O1357   1.250   1_554  A
C1110      C1116   1.513       .  S
C1111      O1112   1.254       .  A
C1111      C1172   1.488       .  S
C1113      C1114   1.405       .  A
C1113      C1118   1.427       .  A
C1114      C1115   1.417       .  A
C1114      C1119   1.450       .  S
C1115      C1116   1.433       .  A
C1115      C1378   1.451       .  S
C1116      C1117   1.411       .  A
C1117      C1118   1.416       .  A
C1117      C1120   1.452       .  S
C1118      C1121   1.451       .  S
C1119      N1126   1.157       .  T
C1120      N1125   1.157       .  T
C1121      N1123   1.157       .  T
C1122      C1371   1.451       .  S
C1122      N1124   1.158       .  T
C1127      C1128   1.410       .  A
C1127      C1132   1.432       .  A
C1128      C1129   1.416       .  A
C1128      C1133   1.452       .  S
C1129      C1130   1.428       .  A
C1129      C1136   1.451       .  S
C1130      C1131   1.408       .  A
C1131      C1132   1.419       .  A
C1131      C1134   1.451       .  S
C1132      C1135   1.451       .  S
C1133      N1140   1.158       .  T
C1134      N1139   1.157       .  T
C1135      N1137   1.157       .  T
C1136      N1138   1.157       .  T
C1141      C1142   1.418       .  A
C1141      C1146   1.399       .  A
C1142      C1143   1.417       .  A
C1142      C1147   1.450       .  S
C1143      C1144   1.414       .  A
C1143      C1150   1.451       .  S
C1144      C1145   1.434       .  A
C1145      C1146   1.413       .  A
C1145      C1148   1.448       .  S
C1146      C1149   1.455       .  S
C1147      N1154   1.157       .  T
C1148      N1153   1.157       .  T
C1149      N1151   1.157       .  T
C1150      N1152   1.157       .  T
C1155      C1156   1.432       .  A
C1155      C1160   1.409       .  A
C1156      C1157   1.410       .  A
C1157      C1158   1.401       .  A
C1157      C1164   1.455       .  S
C1158      C1159   1.420       .  A
C1159      C1160   1.415       .  A
C1159      C1162   1.449       .  S
C1160      C1163   1.451       .  S
C1161      N1168   1.157   1_455  T
C1162      N1167   1.157       .  T
C1163      N1165   1.157       .  T
C1164      N1166   1.157       .  T
C1169      C1170   1.416       .  A
C1169      C1174   1.437       .  A
C1170      C1175   1.451       .  S
C1171      C1172   1.417       .  A
C1171      C1178   1.452       .  S
C1172      C1173   1.400       .  A
C1173      C1176   1.453       .  S
C1174      C1177   1.450       .  S
C1175      N1182   1.157       .  T
C1176      N1181   1.157       .  T
C1177      N1179   1.158       .  T
C1178      N1180   1.157       .  T
C1183      C1188   1.419       .  A
C1184      C1185   1.417   1_455  A
C1184      C1189   1.451   1_455  S
C1185      C1186   1.414       .  A
C1185      C1192   1.448       .  S
C1187      C1188   1.416       .  A
C1187      C1190   1.452       .  S
C1188      C1191   1.450       .  S
C1189      N1196   1.158       .  T
C1190      N1195   1.157       .  T
C1191      N1193   1.157       .  T
C1192      N1194   1.156       .  T
C1197      C1198   1.410       .  A
C1197      C1714   1.431   1_545  A
C1198      C1199   1.412   1_545  A
C1198      C1203   1.452       .  S
C1199      C1712   1.424       .  A
C1199      C1206   1.451   1_565  S
C1200      C1711   1.424       .  A
C1200      C1201   1.404       .  A
C1201      C1202   1.414       .  A
C1201      C1204   1.451       .  S
C1202      C1709   1.431       .  A
C1202      C1205   1.452       .  S
C1203      N1210   1.157       .  T
C1204      N1209   1.157       .  T
C1205      N1207   1.158       .  T
C1206      N1208   1.157       .  T
C1211      C1724   1.427       .  A
C1211      C1216   1.405       .  A
C1212      C1723   1.427       .  A
C1212      C1213   1.413       .  A
C1212      C1217   1.451       .  S
C1213      C1214   1.406       .  A
C1213      C1220   1.453       .  S
C1214      C1727   1.431       .  A
C1215      C1726   1.431       .  A
C1215      C1216   1.415       .  A
C1215      C1218   1.451       .  S
C1216      C1219   1.451       .  S
C1217      N1224   1.157       .  T
C1218      N1479   1.158       .  T
C1219      N1221   1.157       .  T
C1220      N1222   1.157       .  T
N1223      C1474   1.158   1_554  T
C1225      C1226   1.417       .  A
C1225      C1230   1.437       .  A
C1226      C1227   1.416       .  A
C1226      C1231   1.451       .  S
C1227      C1228   1.416       .  A
C1227      C1234   1.451       .  S
C1228      C1229   1.399       .  A
C1229      C1230   1.414       .  A
C1229      C1232   1.454       .  S
C1230      C1233   1.450       .  S
C1231      N1238   1.157       .  T
C1232      N1237   1.157       .  T
C1233      N1235   1.157       .  T
C1234      N1236   1.157       .  T
C1239      C1240   1.417       .  A
C1239      C1244   1.399       .  A
C1240      C1241   1.418       .  A
C1240      C1245   1.451       .  S
C1241      C1242   1.419       .  A
C1241      C1248   1.452       .  S
C1242      C1243   1.437       .  A
C1243      C1244   1.415       .  A
C1243      C1246   1.449       .  S
C1244      C1247   1.454       .  S
C1245      N1764   1.157   1_545  T
C1246      N1251   1.157       .  T
C1247      N1249   1.157       .  T
C1248      N1250   1.158       .  T
N1252      C1757   1.157       .  T
C1253      C1254   1.422       .  A
C1253      C1514   1.428       .  A
C1254      C1255   1.420       .  A
C1254      C1259   1.452       .  S
C1255      C1512   1.414       .  A
C1255      C1262   1.445       .  S
C1256      C1511   1.414   1_554  A
C1256      C1257   1.408       .  A
C1257      C1258   1.419       .  A
C1257      C1260   1.452       .  S
C1258      C1509   1.428   1_554  A
C1258      C1261   1.450       .  S
C1259      N1266   1.158       .  T
C1260      N1265   1.157       .  T
C1262      N1264   1.155       .  T
C1267      C1524   1.420   1_554  A
C1267      C1272   1.415       .  A
C1268      C1523   1.420       .  A
C1268      C1269   1.416       .  A
C1268      C1273   1.451       .  S
C1269      C1270   1.415       .  A
C1269      C1276   1.452       .  S
C1270      C1527   1.411       .  A
C1271      C1526   1.411   1_554  A
C1271      C1272   1.416       .  A
C1271      C1274   1.445       .  S
C1272      C1275   1.446       .  S
C1273      N1280   1.157       .  T
C1274      N1279   1.155       .  T
C1275      N1277   1.156       .  T
C1276      N1278   1.157       .  T
O1281      C1296   1.282       .  A
O1281     Al1289   2.005       .  S
C1282      O1292   1.281       .  A
C1282      O1283   1.261       .  A
C1282      C1523   1.507       .  S
O1283     Al1285   1.879       .  S
O1284      C1286   1.279       .  A
Al1285     O1293   2.000       .  S
Al1285     O1295   1.877       .  S
Al1285     O1294   1.767       .  S
C1286      C1470   1.507       .  S
O1287      C1297   1.279       .  A
O1287     Al1801   1.997   1_545  S
O1288      C1301   1.276       .  A
O1288     Al1298   1.982       .  S
Al1289     O1799   1.997       .  S
Al1289     O1302   1.866       .  S
Al1289     O1299   1.867       .  S
Al1289     O1294   1.752       .  S
O1290      C1809   1.253       .  A
O1290     Al1298   1.853       .  S
O1291      C1300   1.254       .  A
O1291     Al1298   1.876       .  S
O1292     Al1298   1.999       .  S
O1293      C1300   1.280       .  A
O1294     Al1298   1.758       .  S
O1295      C1296   1.260       .  A
C1296      C1512   1.498       .  S
C1297      O1802   1.253   1_545  A
C1297      C1495   1.488       .  S
C1300      C1481   1.515       .  S
C1301      O1302   1.252       .  A
C1301      C1456   1.494       .  S
O1303      C1318   1.281       .  A
O1303     Al1311   1.994       .  S
C1304      O1314   1.283       .  A
C1304      C1411   1.501       .  S
O1305     Al1307   1.868       .  S
O1306      C1308   1.277       .  A
O1306     Al1307   1.985       .  S
Al1307     O1315   2.002       .  S
Al1307     O1317   1.862       .  S
Al1307     O1316   1.759       .  S
C1308      O1321   1.253       .  A
C1308      C1453   1.504       .  S
O1309      C1319   1.278       .  A
O1309     Al1823   1.999       .  S
O1310      C1323   1.282       .  A
O1310     Al1320   2.000       .  S
Al1311     O1821   1.999   1_545  S
Al1311     O1324   1.853       .  S
Al1311     O1321   1.874       .  S
Al1311     O1316   1.749       .  S
O1312      C1831   1.253   1_545  A
O1312     Al1320   1.861       .  S
O1313      C1322   1.254       .  A
O1313     Al1320   1.878       .  S
O1315      C1322   1.280       .  A
O1316     Al1320   1.753       .  S
O1317      C1318   1.258       .  A
C1318      C1397   1.487       .  S
C1319      O1824   1.253       .  A
C1319      C1442   1.492       .  S
C1322      C1425   1.515       .  S
C1323      O1324   1.250       .  A
C1323      C1467   1.499       .  S
O1325      C1340   1.278       .  A
O1325     Al1333   1.987       .  S
C1326      O1336   1.280       .  A
C1326      O1327   1.255       .  A
C1326      C1498   1.520       .  S
O1327     Al1329   1.880       .  S
O1328      C1330   1.279       .  A
O1328     Al1329   2.002       .  S
Al1329     O1337   2.016       .  S
Al1329     O1339   1.856       .  S
Al1329     O1338   1.757       .  S
C1330      O1343   1.250       .  A
C1330      C1369   1.504       .  S
O1331      C1341   1.280       .  A
O1331     Al1333   1.984       .  S
O1332      C1345   1.278       .  A
O1332     Al1342   1.994       .  S
Al1333     O1346   1.878       .  S
Al1333     O1343   1.864       .  S
Al1333     O1338   1.749       .  S
O1334      C1341   1.258       .  A
O1334     Al1342   1.862       .  S
O1335      C1344   1.259       .  A
O1335     Al1342   1.879       .  S
O1336     Al1342   2.006       .  S
O1337      C1344   1.284       .  A
O1338     Al1342   1.763       .  S
O1339      C1340   1.255       .  A
C1340      C1484   1.485       .  S
C1341      C1414   1.487       .  S
C1344      C1400   1.511       .  S
C1345      O1346   1.253       .  A
C1345      C1383   1.514       .  S
O1347      C1362   1.281       .  A
C1348      O1358   1.280       .  A
C1348      O1349   1.258       .  A
C1348      C1526   1.494       .  S
O1349     Al1351   1.863       .  S
O1350      C1352   1.276       .  A
O1350     Al1351   1.976       .  S
Al1351     O1361   1.885       .  S
Al1351     O1360   1.767       .  S
C1352      O1365   1.260       .  A
C1352      C1439   1.508       .  S
O1353      C1363   1.278       .  A
O1353     Al1355   1.997       .  S
O1354      C1367   1.277       .  A
O1354     Al1364   1.985       .  S
Al1355     O1368   1.858       .  S
Al1355     O1365   1.884       .  S
Al1355     O1360   1.764       .  S
O1356      C1363   1.253       .  A
O1356     Al1364   1.868       .  S
O1357     Al1364   1.872       .  S
O1358     Al1364   1.999       .  S
O1359      C1366   1.278       .  A
O1360     Al1364   1.757       .  S
C1362      C1509   1.521       .  S
C1363      C1386   1.508       .  S
C1366      C1372   1.513       .  S
C1367      O1368   1.254       .  A
C1367      C1428   1.488       .  S
C1369      C1370   1.405       .  A
C1369      C1374   1.427       .  A
C1370      C1371   1.417       .  A
C1370      C1375   1.450       .  S
C1371      C1372   1.433       .  A
C1372      C1373   1.411       .  A
C1373      C1374   1.416       .  A
C1373      C1376   1.452       .  S
C1374      C1377   1.451       .  S
C1375      N1382   1.157       .  T
C1376      N1381   1.157       .  T
C1377      N1379   1.157       .  T
C1378      N1380   1.158   1_554  T
C1383      C1384   1.410       .  A
C1383      C1388   1.432       .  A
C1384      C1385   1.416       .  A
C1384      C1389   1.452       .  S
C1385      C1386   1.428       .  A
C1385      C1392   1.451       .  S
C1386      C1387   1.408       .  A
C1387      C1388   1.419       .  A
C1387      C1390   1.451       .  S
C1388      C1391   1.451       .  S
C1389      N1396   1.158       .  T
C1390      N1395   1.157       .  T
C1391      N1393   1.157       .  T
C1392      N1394   1.157       .  T
C1397      C1398   1.418       .  A
C1397      C1402   1.399       .  A
C1398      C1399   1.417       .  A
C1398      C1403   1.450       .  S
C1399      C1400   1.414       .  A
C1399      C1406   1.451       .  S
C1400      C1401   1.434       .  A
C1401      C1402   1.413       .  A
C1401      C1404   1.448       .  S
C1402      C1405   1.455       .  S
C1403      N1410   1.157       .  T
C1404      N1409   1.157       .  T
C1405      N1407   1.157       .  T
C1406      N1408   1.157       .  T
C1411      C1412   1.432       .  A
C1411      C1416   1.409       .  A
C1412      C1413   1.410       .  A
C1413      C1414   1.401       .  A
C1413      C1420   1.455       .  S
C1414      C1415   1.420       .  A
C1415      C1416   1.415       .  A
C1415      C1418   1.449       .  S
C1416      C1419   1.451       .  S
C1417      N1424   1.157   1_455  T
C1418      N1423   1.157       .  T
C1419      N1421   1.157       .  T
C1420      N1422   1.157       .  T
C1425      C1426   1.416       .  A
C1425      C1430   1.437       .  A
C1426      C1431   1.451       .  S
C1427      C1428   1.417       .  A
C1427      C1434   1.452       .  S
C1428      C1429   1.400       .  A
C1429      C1432   1.453       .  S
C1430      C1433   1.450       .  S
C1431      N1438   1.157       .  T
C1432      N1437   1.157       .  T
C1433      N1435   1.158       .  T
C1434      N1436   1.157       .  T
C1439      C1444   1.419       .  A
C1440      C1441   1.416   1_455  A
C1440      C1445   1.451   1_455  S
C1441      C1442   1.414       .  A
C1441      C1448   1.448       .  S
C1443      C1444   1.416       .  A
C1443      C1446   1.452       .  S
C1444      C1447   1.450       .  S
C1445      N1452   1.158       .  T
C1446      N1451   1.157       .  T
C1447      N1449   1.157       .  T
C1448      N1450   1.156       .  T
C1453      C1454   1.410       .  A
C1453      C1970   1.431   1_545  A
C1454      C1455   1.412   1_545  A
C1454      C1459   1.452       .  S
C1455      C1968   1.424       .  A
C1455      C1462   1.451   1_565  S
C1456      C1967   1.424       .  A
C1456      C1457   1.404       .  A
C1457      C1458   1.414       .  A
C1457      C1460   1.451       .  S
C1458      C1965   1.431       .  A
C1458      C1461   1.452       .  S
C1459      N1466   1.157       .  T
C1460      N1465   1.157       .  T
C1461      N1463   1.158       .  T
C1462      N1464   1.157       .  T
C1467      C1980   1.427       .  A
C1467      C1472   1.405       .  A
C1468      C1979   1.427       .  A
C1468      C1469   1.413       .  A
C1468      C1473   1.451       .  S
C1469      C1470   1.406       .  A
C1469      C1476   1.453       .  S
C1470      C1983   1.431       .  A
C1471      C1982   1.431       .  A
C1471      C1472   1.415       .  A
C1471      C1474   1.451       .  S
C1472      C1475   1.451       .  S
C1473      N1480   1.157       .  T
C1475      N1477   1.157       .  T
C1476      N1478   1.157       .  T
C1481      C1482   1.417       .  A
C1481      C1486   1.437       .  A
C1482      C1483   1.416       .  A
C1482      C1487   1.451       .  S
C1483      C1484   1.416       .  A
C1483      C1490   1.451       .  S
C1484      C1485   1.399       .  A
C1485      C1486   1.414       .  A
C1485      C1488   1.454       .  S
C1486      C1489   1.450       .  S
C1487      N1494   1.157       .  T
C1488      N1493   1.157       .  T
C1489      N1491   1.157       .  T
C1490      N1492   1.157       .  T
C1495      C1496   1.417       .  A
C1495      C1500   1.399       .  A
C1496      C1497   1.418       .  A
C1496      C1501   1.451       .  S
C1497      C1498   1.419       .  A
C1497      C1504   1.452       .  S
C1498      C1499   1.437       .  A
C1499      C1500   1.415       .  A
C1499      C1502   1.449       .  S
C1500      C1503   1.454       .  S
C1501      N2020   1.157   1_545  T
C1502      N1507   1.157       .  T
C1503      N1505   1.157       .  T
C1504      N1506   1.158       .  T
N1508      C2013   1.157       .  T
C1509      C1510   1.422       .  A
C1510      C1511   1.420       .  A
C1510      C1515   1.452       .  S
C1511      C1518   1.445       .  S
C1512      C1513   1.408       .  A
C1513      C1514   1.418       .  A
C1513      C1516   1.452       .  S
C1514      C1517   1.450       .  S
C1515      N1522   1.158       .  T
C1516      N1521   1.157       .  T
C1518      N1520   1.155       .  T
C1523      C1528   1.415       .  A
C1524      C1525   1.416       .  A
C1524      C1529   1.451       .  S
C1525      C1526   1.415       .  A
C1525      C1532   1.452       .  S
C1527      C1528   1.416       .  A
C1527      C1530   1.445       .  S
C1528      C1531   1.446       .  S
C1529      N1536   1.157       .  T
C1530      N1535   1.155       .  T
C1531      N1533   1.156       .  T
C1532      N1534   1.157       .  T
O1537      C1552   1.282       .  A
O1537     Al1545   2.005       .  S
C1538      O1548   1.281       .  A
C1538      O1539   1.261       .  A
C1538      C1779   1.507       .  S
O1539     Al1541   1.879       .  S
O1540      C1542   1.279       .  A
O1540     Al1797   1.991       .  S
Al1541     O1796   1.991   1_554  S
Al1541     O1549   2.000       .  S
Al1541     O1551   1.877       .  S
Al1541     O1550   1.767       .  S
C1542      O1811   1.249       .  A
C1542      C1726   1.507   1_565  S
O1543      C1553   1.279       .  A
O1544      C1557   1.276       .  A
O1544     Al1554   1.982       .  S
Al1545     O1558   1.866       .  S
Al1545     O1555   1.867       .  S
Al1545     O1550   1.752       .  S
O1546     Al1554   1.853       .  S
O1547      C1556   1.254       .  A
O1547     Al1554   1.876       .  S
O1548     Al1554   1.999       .  S
O1549      C1556   1.280       .  A
O1550     Al1554   1.758       .  S
O1551      C1552   1.260       .  A
C1552      C1768   1.498       .  S
C1553      C1751   1.488       .  S
O1555      C1798   1.249   1_554  A
C1556      C1737   1.515       .  S
C1557      O1558   1.252       .  A
C1557      C1712   1.494       .  S
O1559      C1574   1.281       .  A
O1559     Al1567   1.994       .  S
C1560      O1570   1.283       .  A
C1560      C1667   1.501       .  S
O1561     Al1563   1.868       .  S
O1562      C1564   1.277       .  A
O1562     Al1563   1.985       .  S
Al1563     O1571   2.002       .  S
Al1563     O1573   1.862       .  S
Al1563     O1572   1.759       .  S
C1564      O1577   1.253       .  A
C1564      C1709   1.504       .  S
O1565      C1575   1.278       .  A
O1566      C1579   1.282       .  A
O1566     Al1576   2.000       .  S
Al1567     O1580   1.853       .  S
Al1567     O1577   1.874       .  S
Al1567     O1572   1.749       .  S
O1568     Al1576   1.861       .  S
O1569      C1578   1.254       .  A
O1569     Al1576   1.878       .  S
O1571      C1578   1.280       .  A
O1572     Al1576   1.753       .  S
O1573      C1574   1.258       .  A
C1574      C1653   1.487       .  S
C1575      C1698   1.492       .  S
C1578      C1681   1.515       .  S
C1579      O1580   1.250       .  A
C1579      C1723   1.499       .  S
O1581      C1596   1.278       .  A
O1581     Al1589   1.987       .  S
C1582      O1592   1.280       .  A
C1582      O1583   1.255       .  A
C1582      C1754   1.520       .  S
O1583     Al1585   1.880       .  S
O1584      C1586   1.279       .  A
O1584     Al1585   2.002       .  S
Al1585     O1593   2.016       .  S
Al1585     O1595   1.856       .  S
Al1585     O1594   1.757       .  S
C1586      O1599   1.250       .  A
C1586      C1625   1.504       .  S
O1587      C1597   1.280       .  A
O1587     Al1589   1.984       .  S
O1588      C1601   1.278       .  A
O1588     Al1598   1.994       .  S
Al1589     O1602   1.878       .  S
Al1589     O1599   1.864       .  S
Al1589     O1594   1.749       .  S
O1590      C1597   1.258       .  A
O1590     Al1598   1.862       .  S
O1591      C1600   1.259       .  A
O1591     Al1598   1.879       .  S
O1592     Al1598   2.006       .  S
O1593      C1600   1.284       .  A
O1594     Al1598   1.763       .  S
O1595      C1596   1.255       .  A
C1596      C1740   1.485       .  S
C1597      C1670   1.487       .  S
C1600      C1656   1.511       .  S
C1601      O1602   1.253       .  A
C1601      C1639   1.514       .  S
O1603      C1618   1.281       .  A
C1604      O1614   1.280       .  A
C1604      O1605   1.258       .  A
C1604      C1782   1.494       .  S
O1605     Al1607   1.863       .  S
O1606      C1608   1.276       .  A
O1606     Al1607   1.976       .  S
Al1607     O1871   1.993       .  S
Al1607     O1617   1.885       .  S
Al1607     O1616   1.767       .  S
C1608      O1621   1.260       .  A
C1608      C1695   1.508       .  S
O1609      C1619   1.278       .  A
O1609     Al1611   1.997       .  S
O1610      C1623   1.277       .  A
O1610     Al1620   1.985       .  S
Al1611     O1624   1.858       .  S
Al1611     O1621   1.884       .  S
Al1611     O1616   1.764       .  S
O1612      C1619   1.253       .  A
O1612     Al1620   1.868       .  S
O1613      C1878   1.250       .  A
O1613     Al1620   1.872       .  S
O1614     Al1620   1.999       .  S
O1615      C1622   1.278       .  A
O1615     Al1863   1.993   1_554  S
O1616     Al1620   1.757       .  S
C1618      C1765   1.521       .  S
C1619      C1642   1.508       .  S
C1622      O1869   1.250   1_554  A
C1622      C1628   1.513       .  S
C1623      O1624   1.254       .  A
C1623      C1684   1.488       .  S
C1625      C1626   1.405       .  A
C1625      C1630   1.427       .  A
C1626      C1627   1.417       .  A
C1626      C1631   1.450       .  S
C1627      C1628   1.433       .  A
C1627      C1890   1.451       .  S
C1628      C1629   1.411       .  A
C1629      C1630   1.416       .  A
C1629      C1632   1.452       .  S
C1630      C1633   1.451       .  S
C1631      N1638   1.157       .  T
C1632      N1637   1.157       .  T
C1633      N1635   1.157       .  T
C1634      C1883   1.451       .  S
C1634      N1636   1.158       .  T
C1639      C1640   1.410       .  A
C1639      C1644   1.432       .  A
C1640      C1641   1.416       .  A
C1640      C1645   1.452       .  S
C1641      C1642   1.428       .  A
C1641      C1648   1.451       .  S
C1642      C1643   1.408       .  A
C1643      C1644   1.419       .  A
C1643      C1646   1.451       .  S
C1644      C1647   1.451       .  S
C1645      N1652   1.158       .  T
C1646      N1651   1.157       .  T
C1647      N1649   1.157       .  T
C1648      N1650   1.157       .  T
C1653      C1654   1.418       .  A
C1653      C1658   1.399       .  A
C1654      C1655   1.417       .  A
C1654      C1659   1.450       .  S
C1655      C1656   1.414       .  A
C1655      C1662   1.451       .  S
C1656      C1657   1.434       .  A
C1657      C1658   1.413       .  A
C1657      C1660   1.448       .  S
C1658      C1661   1.455       .  S
C1659      N1666   1.157       .  T
C1660      N1665   1.157       .  T
C1661      N1663   1.157       .  T
C1662      N1664   1.157       .  T
C1667      C1668   1.432       .  A
C1667      C1672   1.409       .  A
C1668      C1669   1.410       .  A
C1669      C1670   1.401       .  A
C1669      C1676   1.455       .  S
C1670      C1671   1.420       .  A
C1671      C1672   1.415       .  A
C1671      C1674   1.449       .  S
C1672      C1675   1.451       .  S
C1673      N1680   1.157   1_455  T
C1674      N1679   1.157       .  T
C1675      N1677   1.157       .  T
C1676      N1678   1.157       .  T
C1681      C1682   1.416       .  A
C1681      C1686   1.437       .  A
C1682      C1687   1.451       .  S
C1683      C1684   1.417       .  A
C1683      C1690   1.452       .  S
C1684      C1685   1.400       .  A
C1685      C1688   1.453       .  S
C1686      C1689   1.450       .  S
C1687      N1694   1.157       .  T
C1688      N1693   1.157       .  T
C1689      N1691   1.158       .  T
C1690      N1692   1.157       .  T
C1695      C1700   1.419       .  A
C1696      C1697   1.416   1_455  A
C1696      C1701   1.451   1_455  S
C1697      C1698   1.414       .  A
C1697      C1704   1.448       .  S
C1699      C1700   1.416       .  A
C1699      C1702   1.452       .  S
C1700      C1703   1.450       .  S
C1701      N1708   1.158       .  T
C1702      N1707   1.157       .  T
C1703      N1705   1.157       .  T
C1704      N1706   1.156       .  T
C1709      C1710   1.410       .  A
C1710      C1711   1.412       .  A
C1710      C1715   1.452       .  S
C1711      C1718   1.451       .  S
C1712      C1713   1.404       .  A
C1713      C1714   1.414       .  A
C1713      C1716   1.451       .  S
C1714      C1717   1.452       .  S
C1715      N1722   1.157       .  T
C1716      N1721   1.157       .  T
C1717      N1719   1.158       .  T
C1718      N1720   1.157       .  T
C1723      C1728   1.405       .  A
C1724      C1725   1.413   1_545  A
C1724      C1729   1.451   1_545  S
C1725      C1726   1.406   1_565  A
C1725      C1732   1.453       .  S
C1727      C1728   1.415       .  A
C1727      C1730   1.451       .  S
C1728      C1731   1.451       .  S
C1729      N1736   1.157       .  T
C1730      N1991   1.158       .  T
C1731      N1733   1.157       .  T
C1732      N1734   1.157       .  T
N1735      C1986   1.158   1_554  T
C1737      C1738   1.417       .  A
C1737      C1742   1.437       .  A
C1738      C1739   1.416       .  A
C1738      C1743   1.451       .  S
C1739      C1740   1.416       .  A
C1739      C1746   1.451       .  S
C1740      C1741   1.399       .  A
C1741      C1742   1.414       .  A
C1741      C1744   1.454       .  S
C1742      C1745   1.450       .  S
C1743      N1750   1.157       .  T
C1744      N1749   1.157       .  T
C1745      N1747   1.157       .  T
C1746      N1748   1.157       .  T
C1751      C1752   1.417       .  A
C1751      C1756   1.399       .  A
C1752      C1753   1.418       .  A
C1752      C1757   1.451       .  S
C1753      C1754   1.419       .  A
C1753      C1760   1.452       .  S
C1754      C1755   1.437       .  A
C1755      C1756   1.415       .  A
C1755      C1758   1.449       .  S
C1756      C1759   1.454       .  S
C1758      N1763   1.157       .  T
C1759      N1761   1.157       .  T
C1760      N1762   1.158       .  T
C1765      C1766   1.422       .  A
C1765      C2026   1.428       .  A
C1766      C1767   1.420       .  A
C1766      C1771   1.452       .  S
C1767      C2024   1.414       .  A
C1767      C1774   1.445       .  S
C1768      C2023   1.414   1_554  A
C1768      C1769   1.408       .  A
C1769      C1770   1.418       .  A
C1769      C1772   1.452       .  S
C1770      C2021   1.428   1_554  A
C1770      C1773   1.450       .  S
C1771      N1778   1.158       .  T
C1772      N1777   1.157       .  T
C1774      N1776   1.155       .  T
C1779      C2036   1.420   1_554  A
C1779      C1784   1.415       .  A
C1780      C2035   1.420       .  A
C1780      C1781   1.416       .  A
C1780      C1785   1.451       .  S
C1781      C1782   1.415       .  A
C1781      C1788   1.452       .  S
C1782      C2039   1.411       .  A
C1783      C2038   1.411   1_554  A
C1783      C1784   1.416       .  A
C1783      C1786   1.445       .  S
C1784      C1787   1.446       .  S
C1785      N1792   1.157       .  T
C1786      N1791   1.155       .  T
C1787      N1789   1.156       .  T
C1788      N1790   1.157       .  T
O1793      C1808   1.282       .  A
O1793     Al1801   2.005       .  S
C1794      O1804   1.281       .  A
C1794      O1795   1.261       .  A
C1794      C2035   1.507       .  S
O1795     Al1797   1.879       .  S
O1796      C1798   1.279       .  A
Al1797     O1805   2.000       .  S
Al1797     O1807   1.877       .  S
Al1797     O1806   1.767       .  S
C1798      C1982   1.507   1_565  S
O1799      C1809   1.279       .  A
O1800      C1813   1.276       .  A
O1800     Al1810   1.982       .  S
Al1801     O1814   1.866       .  S
Al1801     O1811   1.867       .  S
Al1801     O1806   1.752       .  S
O1802     Al1810   1.853       .  S
O1803      C1812   1.254       .  A
O1803     Al1810   1.876       .  S
O1804     Al1810   1.999       .  S
O1805      C1812   1.280       .  A
O1806     Al1810   1.758       .  S
O1807      C1808   1.260       .  A
C1808      C2024   1.498       .  S
C1809      C2007   1.488       .  S
C1812      C1993   1.515       .  S
C1813      O1814   1.252       .  A
C1813      C1968   1.494       .  S
O1815      C1830   1.281       .  A
O1815     Al1823   1.994       .  S
C1816      O1826   1.283       .  A
C1816      C1923   1.501       .  S
O1817     Al1819   1.868       .  S
O1818      C1820   1.277       .  A
O1818     Al1819   1.985       .  S
Al1819     O1827   2.002       .  S
Al1819     O1829   1.862       .  S
Al1819     O1828   1.759       .  S
C1820      O1833   1.253       .  A
C1820      C1965   1.504       .  S
O1821      C1831   1.278       .  A
O1822      C1835   1.282       .  A
O1822     Al1832   2.000       .  S
Al1823     O1836   1.853       .  S
Al1823     O1833   1.874       .  S
Al1823     O1828   1.749       .  S
O1824     Al1832   1.861       .  S
O1825      C1834   1.254       .  A
O1825     Al1832   1.878       .  S
O1827      C1834   1.280       .  A
O1828     Al1832   1.753       .  S
O1829      C1830   1.258       .  A
C1830      C1909   1.487       .  S
C1831      C1954   1.492       .  S
C1834      C1937   1.515       .  S
C1835      O1836   1.250       .  A
C1835      C1979   1.499       .  S
O1837      C1852   1.278       .  A
O1837     Al1845   1.987       .  S
C1838      O1848   1.280       .  A
C1838      O1839   1.255       .  A
C1838      C2010   1.520       .  S
O1839     Al1841   1.880       .  S
O1840      C1842   1.279       .  A
O1840     Al1841   2.002       .  S
Al1841     O1849   2.016       .  S
Al1841     O1851   1.856       .  S
Al1841     O1850   1.757       .  S
C1842      O1855   1.250       .  A
C1842      C1881   1.504       .  S
O1843      C1853   1.280       .  A
O1843     Al1845   1.984       .  S
O1844      C1857   1.278       .  A
O1844     Al1854   1.994       .  S
Al1845     O1858   1.878       .  S
Al1845     O1855   1.864       .  S
Al1845     O1850   1.749       .  S
O1846      C1853   1.258       .  A
O1846     Al1854   1.862       .  S
O1847      C1856   1.259       .  A
O1847     Al1854   1.879       .  S
O1848     Al1854   2.006       .  S
O1849      C1856   1.284       .  A
O1850     Al1854   1.763       .  S
O1851      C1852   1.255       .  A
C1852      C1996   1.485       .  S
C1853      C1926   1.487       .  S
C1856      C1912   1.511       .  S
C1857      O1858   1.253       .  A
C1857      C1895   1.514       .  S
O1859      C1874   1.281       .  A
C1860      O1870   1.280       .  A
C1860      O1861   1.258       .  A
C1860      C2038   1.494       .  S
O1861     Al1863   1.863       .  S
O1862      C1864   1.276       .  A
O1862     Al1863   1.976       .  S
Al1863     O1873   1.885       .  S
Al1863     O1872   1.767       .  S
C1864      O1877   1.260       .  A
C1864      C1951   1.508       .  S
O1865      C1875   1.278       .  A
O1865     Al1867   1.997       .  S
O1866      C1879   1.277       .  A
O1866     Al1876   1.985       .  S
Al1867     O1880   1.858       .  S
Al1867     O1877   1.884       .  S
Al1867     O1872   1.764       .  S
O1868      C1875   1.253       .  A
O1868     Al1876   1.868       .  S
O1869     Al1876   1.872       .  S
O1870     Al1876   1.999       .  S
O1871      C1878   1.278       .  A
O1872     Al1876   1.757       .  S
C1874      C2021   1.521       .  S
C1875      C1898   1.508       .  S
C1878      C1884   1.513       .  S
C1879      O1880   1.254       .  A
C1879      C1940   1.488       .  S
C1881      C1882   1.405       .  A
C1881      C1886   1.427       .  A
C1882      C1883   1.417       .  A
C1882      C1887   1.450       .  S
C1883      C1884   1.433       .  A
C1884      C1885   1.411       .  A
C1885      C1886   1.416       .  A
C1885      C1888   1.452       .  S
C1886      C1889   1.451       .  S
C1887      N1894   1.157       .  T
C1888      N1893   1.157       .  T
C1889      N1891   1.157       .  T
C1890      N1892   1.158   1_554  T
C1895      C1896   1.410       .  A
C1895      C1900   1.432       .  A
C1896      C1897   1.416       .  A
C1896      C1901   1.452       .  S
C1897      C1898   1.428       .  A
C1897      C1904   1.451       .  S
C1898      C1899   1.408       .  A
C1899      C1900   1.419       .  A
C1899      C1902   1.451       .  S
C1900      C1903   1.451       .  S
C1901      N1908   1.158       .  T
C1902      N1907   1.157       .  T
C1903      N1905   1.157       .  T
C1904      N1906   1.157       .  T
C1909      C1910   1.418       .  A
C1909      C1914   1.399       .  A
C1910      C1911   1.417       .  A
C1910      C1915   1.450       .  S
C1911      C1912   1.414       .  A
C1911      C1918   1.451       .  S
C1912      C1913   1.434       .  A
C1913      C1914   1.413       .  A
C1913      C1916   1.448       .  S
C1914      C1917   1.455       .  S
C1915      N1922   1.157       .  T
C1916      N1921   1.157       .  T
C1917      N1919   1.157       .  T
C1918      N1920   1.157       .  T
C1923      C1924   1.432       .  A
C1923      C1928   1.409       .  A
C1924      C1925   1.410       .  A
C1925      C1926   1.401       .  A
C1925      C1932   1.455       .  S
C1926      C1927   1.420       .  A
C1927      C1928   1.415       .  A
C1927      C1930   1.449       .  S
C1928      C1931   1.451       .  S
C1929      N1936   1.157   1_455  T
C1930      N1935   1.157       .  T
C1931      N1933   1.157       .  T
C1932      N1934   1.157       .  T
C1937      C1938   1.416       .  A
C1937      C1942   1.437       .  A
C1938      C1943   1.451       .  S
C1939      C1940   1.417       .  A
C1939      C1946   1.452       .  S
C1940      C1941   1.400       .  A
C1941      C1944   1.453       .  S
C1942      C1945   1.450       .  S
C1943      N1950   1.157       .  T
C1944      N1949   1.157       .  T
C1945      N1947   1.158       .  T
C1946      N1948   1.157       .  T
C1951      C1956   1.419       .  A
C1952      C1953   1.416   1_455  A
C1952      C1957   1.451   1_455  S
C1953      C1954   1.414       .  A
C1953      C1960   1.448       .  S
C1955      C1956   1.416       .  A
C1955      C1958   1.452       .  S
C1956      C1959   1.450       .  S
C1957      N1964   1.158       .  T
C1958      N1963   1.157       .  T
C1959      N1961   1.157       .  T
C1960      N1962   1.156       .  T
C1965      C1966   1.410       .  A
C1966      C1967   1.412       .  A
C1966      C1971   1.452       .  S
C1967      C1974   1.451       .  S
C1968      C1969   1.404       .  A
C1969      C1970   1.414       .  A
C1969      C1972   1.451       .  S
C1970      C1973   1.452       .  S
C1971      N1978   1.157       .  T
C1972      N1977   1.157       .  T
C1973      N1975   1.158       .  T
C1974      N1976   1.157       .  T
C1979      C1984   1.405       .  A
C1980      C1981   1.413   1_545  A
C1980      C1985   1.451   1_545  S
C1981      C1982   1.406   1_565  A
C1981      C1988   1.453       .  S
C1983      C1984   1.415       .  A
C1983      C1986   1.451       .  S
C1984      C1987   1.451       .  S
C1985      N1992   1.157       .  T
C1987      N1989   1.157       .  T
C1988      N1990   1.157       .  T
C1993      C1994   1.417       .  A
C1993      C1998   1.437       .  A
C1994      C1995   1.416       .  A
C1994      C1999   1.451       .  S
C1995      C1996   1.416       .  A
C1995      C2002   1.451       .  S
C1996      C1997   1.399       .  A
C1997      C1998   1.414       .  A
C1997      C2000   1.454       .  S
C1998      C2001   1.450       .  S
C1999      N2006   1.157       .  T
C2000      N2005   1.157       .  T
C2001      N2003   1.157       .  T
C2002      N2004   1.157       .  T
C2007      C2008   1.417       .  A
C2007      C2012   1.399       .  A
C2008      C2009   1.418       .  A
C2008      C2013   1.451       .  S
C2009      C2010   1.419       .  A
C2009      C2016   1.451       .  S
C2010      C2011   1.437       .  A
C2011      C2012   1.415       .  A
C2011      C2014   1.449       .  S
C2012      C2015   1.454       .  S
C2014      N2019   1.157       .  T
C2015      N2017   1.157       .  T
C2016      N2018   1.158       .  T
C2021      C2022   1.422       .  A
C2022      C2023   1.420       .  A
C2022      C2027   1.452       .  S
C2023      C2030   1.445       .  S
C2024      C2025   1.408       .  A
C2025      C2026   1.418       .  A
C2025      C2028   1.452       .  S
C2026      C2029   1.450       .  S
C2027      N2034   1.158       .  T
C2028      N2033   1.157       .  T
C2030      N2032   1.155       .  T
C2035      C2040   1.415       .  A
C2036      C2037   1.416       .  A
C2036      C2041   1.451       .  S
C2037      C2038   1.415       .  A
C2037      C2044   1.452       .  S
C2039      C2040   1.416       .  A
C2039      C2042   1.445       .  S
C2040      C2043   1.446       .  S
C2041      N2048   1.157       .  T
C2042      N2047   1.155       .  T
C2043      N2045   1.156       .  T
C2044      N2046   1.157       .  T
