geometry optimzed in LAMMPS
_audit_creation_date              2020-11-30 
_audit_creation_method            'lammps2cif' 
_symmetry_space_group_name_H-M    'P1' 
_symmetry_Int_Tables_number       1 
_symmetry_cell_setting            triclinic 
loop_ 
_symmetry_equiv_pos_as_xyz 
  x,y,z 
_cell_length_a                    33.7227086 
_cell_length_b                    34.75139978467825 
_cell_length_c                    26.55983929887164 
_cell_angle_alpha                 89.88520387630236 
_cell_angle_beta                  89.08765047934044 
_cell_angle_gamma                 89.82507100384906 
loop_ 
_atom_site_label 
_atom_site_type_symbol 
_atom_site_fract_x 
_atom_site_fract_y 
_atom_site_fract_z 
_atom_site_charge 
C1          C  0.47127610  0.39686881  0.90701990    -0.01800
C2          C  0.66592363  0.59529855  0.75229952    -0.01800
C3          C  0.60995848  0.58615892  0.38378868    -0.01800
C4          C  0.42790381  0.37653748  0.27122663    -0.01800
C5          C  0.90945328  0.10250717  0.53595793    -0.01800
C6          C  0.09953252  0.88369107  0.43698681    -0.01800
O7          O  0.04691693  0.47966261  0.21115996    -0.57100
C8          C  0.08397747  0.47023204  0.03757214     0.75500
O9          O  0.12896077  0.56638731  0.13671293    -0.58300
C10         C  0.04481244  0.51174088  0.23393958     0.75500
C11         C  0.16197964  0.46698953  0.17646430     0.77900
Cd12       Cd  0.09246203  0.50521526  0.13883748     1.37500
O13         O  0.05295598  0.47829116  0.06347887    -0.57100
O14         O  0.12863900  0.45031506  0.17589527    -0.55900
C15         C  0.10490392  0.58433256  0.10894609     0.77800
O16         O  0.16278368  0.50125606  0.16028397    -0.58300
O17         O  0.11643379  0.47648795  0.05905792    -0.56700
O18         O  0.06057577  0.53969807  0.21082521    -0.56700
O19         O  0.07478563  0.56569865  0.09480965    -0.55900
O20         O  0.05357859  0.44856929  0.95932567    -0.57100
C21         C  0.05971180  0.43390495  0.78488701     0.75500
O22         O  0.15425480  0.37991621  0.87200851    -0.58300
C23         C  0.08420821  0.45395885  0.98548109     0.75500
C24         C  0.06326158  0.33919080  0.91270894     0.77900
Cd25       Cd  0.09176090  0.41498115  0.88570915     1.37500
O26         O  0.07556761  0.46000775  0.81107089    -0.57100
O27         O  0.03991671  0.36774635  0.91025323    -0.55900
C28         C  0.17575384  0.40887265  0.86261696     0.77800
O29         O  0.09947488  0.34599486  0.90318273    -0.58300
O30         O  0.05694607  0.40144645  0.80598096    -0.56700
O31         O  0.11655639  0.44433980  0.96444946    -0.56700
O32         O  0.15799648  0.44109571  0.86224323    -0.55900
O33         O  0.03634529  0.47817777  0.56238594    -0.57100
C34         C  0.04362839  0.43991485  0.73346645     0.75500
O35         O  0.93354198  0.45522341  0.67975383    -0.58300
C36         C  0.00462797  0.48310639  0.53760951     0.75500
C37         C  0.98386101  0.37455498  0.60179389     0.77900
Cd38       Cd  0.99893960  0.44995218  0.63993663     1.37500
O39         O  0.04815967  0.47051288  0.70764599    -0.57100
O40         O  0.01867601  0.38829078  0.60165030    -0.55900
C41         C  0.93588313  0.49070169  0.69017565     0.77800
O42         O  0.95701777  0.39503506  0.62246779    -0.58300
O43         O  0.02333619  0.41382324  0.71321383    -0.56700
O44         O  0.97275565  0.47527035  0.56097172    -0.56700
O45         O  0.96730150  0.50765628  0.67592745    -0.55900
O46         O  0.03248328  0.50927026  0.45909868    -0.57100
C47         C  0.02631609  0.51758511  0.28498364     0.75500
O48         O  0.92820376  0.57108767  0.37129769    -0.58300
C49         C  0.00282629  0.49775776  0.48477664     0.75500
C50         C  0.01166566  0.61306508  0.41743565     0.77900
Cd51       Cd  0.99039881  0.53613051  0.38586537     1.37500
O52         O  0.01318116  0.49076163  0.31309553    -0.57100
O53         O  0.03766273  0.58963546  0.40089661    -0.55900
C54         C  0.90579034  0.54243572  0.36550543     0.77800
O55         O  0.97637406  0.60098086  0.41845812    -0.58300
O56         O  0.02394507  0.55089352  0.30369870    -0.56700
O57         O  0.96992054  0.50018353  0.46292547    -0.56700
O58         O  0.92275126  0.50979495  0.36633341    -0.55900
C59         C  0.15953144  0.86416603  0.06065735    -0.01800
C60         C  0.96956406  0.06732232  0.91166010    -0.01800
O61         O  0.55369916  0.99980074  0.85882845    -0.57100
C62         C  0.55964306  0.02464403  0.02683282     0.75500
O63         O  0.65465323  0.07235401  0.94416205    -0.58300
C64         C  0.58031177  0.00341696  0.82470433     0.75500
C65         C  0.55829206  0.11711409  0.89665205     0.77900
Cd66       Cd  0.59049572  0.04246327  0.92329764     1.37500
O67         O  0.56359524  0.99796857  0.99437987    -0.57100
O68         O  0.53701189  0.09071897  0.91573293    -0.55900
C69         C  0.67471474  0.04152241  0.94338091     0.77800
O70         O  0.59435850  0.10888777  0.88843038    -0.58300
O71         O  0.56923711  0.05782619  0.01151358    -0.56700
O72         O  0.61014943  0.02290978  0.83695431    -0.56700
O73         O  0.65568659  0.01091306  0.93489597    -0.55900
O74         O  0.52884193  0.98804364  0.25376038    -0.57100
C75         C  0.54256214  0.01907057  0.07877423     0.75500
O76         O  0.42607127  0.01444621  0.14055125    -0.58300
C77         C  0.49656187  0.97983941  0.27687675     0.75500
C78         C  0.47960927  0.09284102  0.19919901     0.77900
Cd79       Cd  0.49376580  0.01396953  0.17307060     1.37500
O80         O  0.53485501  0.98650350  0.09828592    -0.57100
O81         O  0.51293616  0.07705576  0.20701432    -0.55900
C82         C  0.42669489  0.98001358  0.12504653     0.77800
O83         O  0.45336945  0.07192215  0.17960321    -0.58300
O84         O  0.53308255  0.04773817  0.10565568    -0.56700
O85         O  0.46561517  0.98498119  0.25159411    -0.56700
O86         O  0.45828400  0.96117106  0.13278749    -0.55900
O87         O  0.52203009  0.96119395  0.35990975    -0.57100
C88         C  0.52214263  0.93989333  0.52945738     0.75500
O89         O  0.41567897  0.89830742  0.45176203    -0.58300
C90         C  0.49330746  0.96464806  0.32986622     0.75500
C91         C  0.49468087  0.84800655  0.40131020     0.77900
Cd92       Cd  0.48053661  0.92690209  0.43105906     1.37500
O93         O  0.49547377  0.96295081  0.51474057    -0.57100
O94         O  0.51576961  0.87549651  0.38502414    -0.55900
C95         C  0.39535567  0.92898264  0.45185334     0.77800
O96         O  0.46744743  0.85675471  0.43254517    -0.58300
O97         O  0.53160546  0.91413297  0.49794257    -0.56700
O98         O  0.46013406  0.95412074  0.34775871    -0.56700
O99         O  0.41450890  0.95983481  0.44369224    -0.62300
O100        O  0.53218383  0.96571531  0.61450318    -0.57100
C101        C  0.57888266  0.98565673  0.77354809     0.75500
O102        O  0.63234390  0.89238703  0.70212934    -0.58300
C103        C  0.54162359  0.94188114  0.58001562     0.75500
C104        C  0.65525037  0.98287087  0.63001722     0.77900
Cd105      Cd  0.58804374  0.94516750  0.67569598     1.37500
O106        O  0.55025774  0.96577842  0.75718277    -0.57100
O107        O  0.62299647  0.00047008  0.63913886    -0.55900
C108        C  0.60593906  0.86966136  0.71875483     0.77800
O109        O  0.65667961  0.94780397  0.64311902    -0.58300
O110        O  0.60804882  0.98930107  0.74353322    -0.56700
O111        O  0.56920014  0.91881485  0.59119694    -0.56700
O112        O  0.57046979  0.88098746  0.71337301    -0.55900
C113        C  0.92627694  0.06528936  0.93514674    -0.11300
C114        C  0.89679708  0.09364898  0.92283979     0.04200
C115        C  0.85696160  0.08788348  0.93541861    -0.11800
C116        C  0.84428612  0.05476971  0.96034325     0.19100
C117        C  0.87261419  0.02796695  0.97632495    -0.08800
C118        C  0.91293559  0.03350610  0.96457969    -0.01800
H119        H  0.83513953  0.10879618  0.92335339     0.05600
C120        C  0.80109125  0.04726282  0.96305909     0.21000
H121        H  0.93262972  0.01044936  0.97483852     0.10800
C122        C  0.78509746  0.02045555  0.92966815    -0.15200
C123        C  0.74406515  0.01761058  0.92340668     0.03800
C124        C  0.71809663  0.04164826  0.95140188    -0.10500
C125        C  0.73417526  0.06790413  0.98567814    -0.00500
C126        C  0.77527469  0.07085484  0.99158986    -0.05700
H127        H  0.80477496  0.00316571  0.90623428     0.06800
H128        H  0.71472102  0.08663946  0.00739106     0.10200
Br129      Br  0.85719340  0.98220846  0.01192243    -0.05400
Br130      Br  0.90623791  0.14098485  0.88665409    -0.02300
Br131      Br  0.72582515  0.98390317  0.87151457     0.00500
Br132      Br  0.79509339  0.10814474  0.03796995    -0.03900
C133        C  0.20418018  0.87749220  0.06030256    -0.11300
C134        C  0.22557505  0.88806237  0.01533456     0.04200
C135        C  0.26456231  0.90245976  0.01784396    -0.11800
C136        C  0.28304414  0.90767198  0.06419478     0.19100
C137        C  0.26188768  0.89967309  0.10849664    -0.08800
C138        C  0.22362932  0.88550047  0.10633026    -0.01800
H139        H  0.28041053  0.90997742  0.98343693     0.05600
C140        C  0.32293784  0.92476076  0.06765644     0.21000
H141        H  0.20901369  0.88404701  0.14238929     0.10800
C142        C  0.32674420  0.96474935  0.06309167    -0.15200
C143        C  0.36081968  0.98352670  0.07965723     0.03800
C144        C  0.39203815  0.96192028  0.10100733    -0.10500
C145        C  0.38918246  0.92158040  0.10187409    -0.00500
C146        C  0.35495615  0.90302275  0.08586506    -0.05700
H147        H  0.30207668  0.98166432  0.04945832     0.06800
H148        H  0.41276923  0.90436163  0.11767081     0.10200
Br149      Br  0.28245056  0.91114142  0.17402926    -0.05400
Br150      Br  0.20449156  0.88363425  0.94872649    -0.02300
Br151      Br  0.36199661  0.03854960  0.07269841     0.00500
Br152      Br  0.35173449  0.84823241  0.09412438    -0.03900
C153        C  0.13584366  0.89496690  0.02918243    -0.11300
C154        C  0.13698203  0.93535889  0.04008700     0.04200
C155        C  0.11058187  0.96085966  0.01716371    -0.11800
C156        C  0.08143963  0.94803919  0.98435721     0.19100
C157        C  0.08259649  0.90918692  0.96915234    -0.08800
C158        C  0.11032003  0.88380255  0.98987962    -0.01800
H159        H  0.11175346  0.99111518  0.02679627     0.05600
C160        C  0.05125181  0.97612029  0.96577698     0.21000
H161        H  0.11044955  0.85479543  0.97554370     0.10800
C162        C  0.04631992  0.98083888  0.91406987    -0.15200
C163        C  0.01955456  0.00758779  0.89416370     0.03800
C164        C  0.99720843  0.03283916  0.92722718    -0.10500
C165        C  0.00419724  0.02856157  0.97939562    -0.00500
C166        C  0.02926454  0.00010102  0.99864965    -0.05700
H167        H  0.06458311  0.96393256  0.88844453     0.06800
H168        H  0.98908217  0.04736620  0.00597660     0.10200
Br169      Br  0.04542900  0.88781619  0.92286895    -0.05400
Br170      Br  0.16958009  0.95903352  0.08998062    -0.02300
Br171      Br  0.02227316  0.00765191  0.82138469     0.00500
Br172      Br  0.03086321  0.99458203  0.07058906    -0.03900
C173        C  0.04970712  0.29981334  0.92608072    -0.11300
C174        C  0.01098999  0.28653684  0.91633623     0.04200
C175        C  0.00105326  0.24812275  0.92639866    -0.11800
C176        C  0.02880694  0.22237659  0.94661700     0.19100
C177        C  0.06694023  0.23597241  0.95796759    -0.08800
C178        C  0.07708015  0.27419093  0.94747674    -0.01800
H179        H  0.97192044  0.23784089  0.91639252     0.05600
C180        C  0.01894911  0.18075003  0.94891380     0.21000
H181        H  0.10676794  0.28385085  0.95585110     0.10800
C182        C  0.04143910  0.15501231  0.91987009    -0.15200
C183        C  0.02913019  0.11708744  0.91250022     0.03800
C184        C  0.99113820  0.10474455  0.93090468    -0.10500
C185        C  0.97327761  0.12872907  0.96824009    -0.00500
C186        C  0.98578825  0.16668330  0.97562728    -0.05700
H187        H  0.06794014  0.16509168  0.90043732     0.06800
H188        H  0.94776019  0.11936415  0.99000498     0.10200
Br189      Br  0.10628009  0.20356750  0.98798719    -0.05400
Br190      Br  0.97128109  0.31798869  0.88531101    -0.02300
Br191      Br  0.06466085  0.08736526  0.87113477     0.00500
Br192      Br  0.95570855  0.19855938  0.02121445    -0.03900
C193        C  0.11193429  0.62471492  0.09312677    -0.11300
C194        C  0.12880723  0.65198774  0.12576096     0.04200
C195        C  0.13564118  0.68964206  0.10894050    -0.11800
C196        C  0.12607832  0.70091272  0.05985183     0.19100
C197        C  0.10929845  0.67386755  0.02721975    -0.08800
C198        C  0.10207146  0.63620272  0.04405800    -0.01800
H199        H  0.14801911  0.71048665  0.13455551     0.05600
C200        C  0.13256494  0.74156685  0.04491857     0.21000
H201        H  0.08928628  0.61563854  0.01841518     0.10800
C202        C  0.17039425  0.75366329  0.02981973    -0.15200
C203        C  0.18053623  0.79293248  0.02772732     0.03800
C204        C  0.15172270  0.82167942  0.04201132    -0.10500
C205        C  0.11218740  0.80817642  0.04968236    -0.00500
C206        C  0.10285542  0.76914949  0.05240625    -0.05700
H207        H  0.19313579  0.73208683  0.02308955     0.06800
H208        H  0.08869739  0.82833947  0.05917505     0.10200
Br209      Br  0.09624125  0.68720485  0.95943116    -0.05400
Br210      Br  0.14071004  0.64042449  0.19465523    -0.02300
Br211      Br  0.23579878  0.80045577  0.01239178     0.00500
Br212      Br  0.04992107  0.75492156  0.07224135    -0.03900
C213        C  0.14262946  0.86298911  0.11629098    -0.11300
C214        C  0.15750432  0.83657208  0.15322061     0.04200
C215        C  0.14512840  0.83939985  0.20318324    -0.11800
C216        C  0.11686962  0.86641264  0.21813892     0.19100
C217        C  0.09833698  0.88930127  0.18216704    -0.08800
C218        C  0.11013047  0.88653124  0.13183208    -0.01800
H219        H  0.15888994  0.82126573  0.23126702     0.05600
C220        C  0.10929914  0.87145641  0.27205813     0.21000
H221        H  0.09334965  0.90353776  0.10573286     0.10800
C222        C  0.12317341  0.90459284  0.29529290    -0.15200
C223        C  0.12073991  0.90889746  0.34739094     0.03800
C224        C  0.10366470  0.87916188  0.37826580    -0.10500
C225        C  0.09098671  0.84539627  0.35309014    -0.00500
C226        C  0.09310681  0.84175361  0.30110604    -0.05700
H227        H  0.13652608  0.92718544  0.27255790     0.06800
H228        H  0.08125196  0.82008142  0.37287955     0.10200
Br229      Br  0.05681739  0.92482707  0.20019927    -0.05400
Br230      Br  0.19897342  0.79912857  0.14277483    -0.02300
Br231      Br  0.13938951  0.95772553  0.37151230     0.00500
Br232      Br  0.07404474  0.79507517  0.27139983    -0.03900
C233        C  0.14356333  0.88983415  0.45391497    -0.11300
C234        C  0.17501821  0.86463045  0.43733575     0.04200
C235        C  0.21470910  0.87420320  0.44450524    -0.11800
C236        C  0.22552370  0.90768049  0.46947978     0.19100
C237        C  0.19550287  0.93170260  0.48898240    -0.08800
C238        C  0.15539795  0.92316853  0.48063684    -0.01800
H239        H  0.23772553  0.85527319  0.42982632     0.05600
C240        C  0.26846910  0.91717110  0.47200352     0.21000
H241        H  0.13410082  0.94428670  0.49324068     0.10800
C242        C  0.28376741  0.94754670  0.44268084    -0.15200
C243        C  0.32488639  0.95305331  0.43696291     0.03800
C244        C  0.35164034  0.92776824  0.46091234    -0.10500
C245        C  0.33606223  0.89822323  0.49156419    -0.00500
C246        C  0.29509024  0.89286518  0.49728914    -0.05700
H247        H  0.26363946  0.96590861  0.42211419     0.06800
H248        H  0.35592542  0.87861134  0.51054009     0.10200
Br249      Br  0.20801448  0.97650238  0.52749322    -0.05400
Br250      Br  0.16843460  0.81583966  0.40460732    -0.02300
Br251      Br  0.34231903  0.99291482  0.39174276     0.00500
Br252      Br  0.27676841  0.85136704  0.53931042    -0.03900
C253        C  0.07942583  0.84709936  0.46104368    -0.11300
C254        C  0.09812611  0.81890418  0.49209457     0.04200
C255        C  0.08382926  0.78100886  0.49251811    -0.11800
C256        C  0.04957768  0.77107392  0.46655139     0.19100
C257        C  0.02593444  0.80064434  0.44688581    -0.08800
C258        C  0.04026088  0.83841903  0.44582378    -0.01800
H259        H  0.10027530  0.75879746  0.51192915     0.05600
C260        C  0.04095370  0.72995451  0.45648957     0.21000
H261        H  0.02312928  0.85963427  0.42562618     0.10800
C262        C  0.00855662  0.71190720  0.48020945    -0.15200
C263        C  0.99879110  0.67369117  0.46890626     0.03800
C264        C  0.02183528  0.65274947  0.43322489    -0.10500
C265        C  0.05485614  0.67066555  0.41068811    -0.00500
C266        C  0.06430298  0.70884542  0.42169031    -0.05700
H267        H  0.99062685  0.72773686  0.50735503     0.06800
H268        H  0.07279195  0.65529436  0.38308868     0.10200
Br269      Br  0.97694957  0.79010942  0.41389430    -0.05400
Br270      Br  0.14084053  0.82805210  0.53783045    -0.02300
Br271      Br  0.95467259  0.65159471  0.50511559     0.00500
Br272      Br  0.10816700  0.73134708  0.38576150    -0.03900
C273        C  0.91501119  0.09415378  0.59446478    -0.11300
C274        C  0.89937553  0.11829496  0.63381667     0.04200
C275        C  0.90340896  0.10837680  0.68445297    -0.11800
C276        C  0.92704418  0.07757164  0.69883865     0.19100
C277        C  0.94512845  0.05480036  0.66205398    -0.08800
C278        C  0.93977345  0.06345089  0.61153127    -0.01800
H279        H  0.89166641  0.12743899  0.71338912     0.05600
C280        C  0.93870779  0.07443239  0.75164722     0.21000
H281        H  0.95956040  0.04788873  0.58693329     0.10800
C282        C  0.92601498  0.04321074  0.78048650    -0.15200
C283        C  0.93731562  0.03922534  0.83058557     0.03800
C284        C  0.96140264  0.06796930  0.85396393    -0.10500
C285        C  0.97347652  0.09935913  0.82321621    -0.00500
C286        C  0.96322992  0.10221905  0.77292137    -0.05700
H287        H  0.90773793  0.02134010  0.76347269     0.06800
H288        H  0.98935343  0.12354134  0.83755003     0.10200
Br289      Br  0.98136178  0.01409041  0.67871625    -0.05400
Br290      Br  0.88379873  0.17075811  0.62709286    -0.02300
Br291      Br  0.92098866  0.99153794  0.86137244     0.00500
Br292      Br  0.98390937  0.14499228  0.73476319    -0.03900
C293        C  0.97424656  0.33668158  0.57932952    -0.11300
C294        C  0.00038953  0.31642271  0.54656592     0.04200
C295        C  0.98967947  0.28013430  0.52842744    -0.11800
C296        C  0.95292165  0.26366252  0.54123140     0.19100
C297        C  0.92609356  0.28477630  0.57177041    -0.08800
C298        C  0.93694697  0.32064515  0.59047196    -0.01800
H299        H  0.01050374  0.26426693  0.50485244     0.05600
C300        C  0.94592556  0.22260085  0.52919510     0.21000
H301        H  0.91610743  0.33575766  0.61485320     0.10800
C302        C  0.97139602  0.19511033  0.54962975    -0.15200
C303        C  0.96298352  0.15588973  0.54670271     0.03800
C304        C  0.92647109  0.14333930  0.52579024    -0.10500
C305        C  0.90541168  0.17070617  0.49715963    -0.00500
C306        C  0.91454294  0.21005089  0.49918803    -0.05700
H307        H  0.99759331  0.20430373  0.56937294     0.06800
H308        H  0.88135385  0.16164941  0.47359452     0.10200
Br309      Br  0.87493528  0.26593894  0.59205946    -0.05400
Br310      Br  0.05061418  0.33639667  0.52383900    -0.02300
Br311      Br  0.00397113  0.12239144  0.57085336     0.00500
Br312      Br  0.88379385  0.24544211  0.46023515    -0.03900
C313        C  0.68981009  0.00224678  0.60627258    -0.11300
C314        C  0.68557822  0.03357251  0.57267483     0.04200
C315        C  0.71929240  0.05177420  0.55275621    -0.11800
C316        C  0.75735122  0.03930025  0.56554426     0.19100
C317        C  0.76174699  0.00794606  0.59848751    -0.08800
C318        C  0.72813802  0.98943793  0.61816482    -0.01800
H319        H  0.71585566  0.07600607  0.52744027     0.05600
C320        C  0.79212499  0.06109420  0.54725999     0.21000
H321        H  0.73202534  0.96563616  0.64404294     0.10800
C322        C  0.80044271  0.09650035  0.56929203    -0.15200
C323        C  0.83330885  0.11778277  0.55308818     0.03800
C324        C  0.86349964  0.09926429  0.52380332    -0.10500
C325        C  0.84934658  0.06970293  0.49208793    -0.00500
C326        C  0.81513356  0.04905643  0.50563981    -0.05700
H327        H  0.77883909  0.10945633  0.59478357     0.06800
H328        H  0.86707045  0.05909962  0.46077487     0.10200
Br329      Br  0.81311180  0.99090959  0.61951086    -0.05400
Br330      Br  0.63496073  0.05210763  0.55078014    -0.02300
Br331      Br  0.81769881  0.17018940  0.54008789     0.00500
Br332      Br  0.80262554  0.00328964  0.46905933    -0.03900
C333        C  0.93288118  0.07110075  0.50423515    -0.11300
C334        C  0.96448095  0.07792093  0.46885025     0.04200
C335        C  0.99125920  0.04813627  0.45699045    -0.11800
C336        C  0.98529612  0.01065246  0.47508481     0.19100
C337        C  0.94983563  0.00214950  0.50080964    -0.08800
C338        C  0.92379649  0.03175786  0.51390560    -0.01800
H339        H  0.01674077  0.05414739  0.43291472     0.05600
C340        C  0.01526895  0.98023394  0.46530685     0.21000
H341        H  0.89869375  0.02431996  0.53790922     0.10800
C342        C  0.03396097  0.96205083  0.50572830    -0.15200
C343        C  0.06007004  0.93094047  0.49814551     0.03800
C344        C  0.07029268  0.91838536  0.44848486    -0.10500
C345        C  0.04852761  0.93598048  0.40883746    -0.00500
C346        C  0.02268638  0.96678251  0.41658588    -0.05700
H347        H  0.02709960  0.97139119  0.54379929     0.06800
H348        H  0.04977110  0.92552493  0.37071282     0.10200
Br349      Br  0.93641809  0.95079074  0.52152407    -0.05400
Br350      Br  0.97105415  0.12363005  0.42862787    -0.02300
Br351      Br  0.07782054  0.90619215  0.55833312     0.00500
Br352      Br  0.99614750  0.98770982  0.35910111    -0.03900
C353        C  0.47164663  0.13340363  0.21295592    -0.11300
C354        C  0.44285334  0.15580715  0.18808013     0.04200
C355        C  0.43627602  0.19390917  0.20264443    -0.11800
C356        C  0.45843940  0.21074967  0.24092945     0.19100
C357        C  0.48681681  0.18851712  0.26617453    -0.08800
C358        C  0.49327707  0.15019126  0.25204737    -0.01800
H359        H  0.41464664  0.21104816  0.18273419     0.05600
C360        C  0.45356559  0.25234947  0.25068567     0.21000
H361        H  0.51538245  0.13348266  0.27168941     0.10800
C362        C  0.43534279  0.26520971  0.29521539    -0.15200
C363        C  0.42790239  0.30451841  0.30348828     0.03800
C364        C  0.44004433  0.33280913  0.26713465    -0.10500
C365        C  0.45672968  0.31807432  0.22146478    -0.00500
C366        C  0.46433888  0.27920496  0.21377697    -0.05700
H367        H  0.42584905  0.24434008  0.32323998     0.06800
H368        H  0.46244321  0.33572362  0.18897889     0.10200
Br369      Br  0.51848275  0.20977429  0.31858000    -0.05400
Br370      Br  0.41374851  0.13770548  0.13122431    -0.02300
Br371      Br  0.39981871  0.31589632  0.36506166     0.00500
Br372      Br  0.48877862  0.26433865  0.15076328    -0.03900
C373        C  0.38140724  0.37597060  0.27569128    -0.11300
C374        C  0.35700777  0.39604679  0.31174738     0.04200
C375        C  0.31770791  0.40509021  0.29970266    -0.11800
C376        C  0.30109334  0.39214278  0.25495213     0.19100
C377        C  0.32202509  0.36557666  0.22522836    -0.08800
C378        C  0.36130851  0.35701747  0.23623450    -0.01800
H379        H  0.30037947  0.42349387  0.32458072     0.05600
C380        C  0.26495429  0.41071452  0.23587079     0.21000
H381        H  0.37759079  0.33934167  0.20948936     0.10800
C382        C  0.26933268  0.43895333  0.19850100    -0.15200
C383        C  0.23632486  0.45722576  0.17810175     0.03800
C384        C  0.19783918  0.44759575  0.19573236    -0.10500
C385        C  0.19358855  0.41879840  0.23278786    -0.00500
C386        C  0.22682431  0.40040609  0.25288677    -0.05700
H387        H  0.29872811  0.44644050  0.18465069     0.06800
H388        H  0.16433894  0.41076080  0.24649783     0.10200
Br389      Br  0.29956136  0.34373669  0.16587626    -0.05400
Br390      Br  0.37159207  0.41035414  0.37910223    -0.02300
Br391      Br  0.24613098  0.49286751  0.12394523     0.00500
Br392      Br  0.21904236  0.36078542  0.30233053    -0.03900
C393        C  0.65256962  0.57492792  0.36343050    -0.11300
C394        C  0.67598587  0.59430791  0.32564414     0.04200
C395        C  0.71660725  0.58553881  0.31998331    -0.11800
C396        C  0.73465215  0.55655458  0.34838191     0.19100
C397        C  0.71086041  0.53402196  0.38050956    -0.08800
C398        C  0.67054068  0.54250726  0.38656098    -0.01800
H399        H  0.73463235  0.60208316  0.29370277     0.05600
C400        C  0.77866424  0.55334188  0.34878953     0.21000
H401        H  0.65392007  0.52562206  0.41381735     0.10800
C402        C  0.79998501  0.58169433  0.37406688    -0.15200
C403        C  0.84113758  0.57894994  0.37934050     0.03800
C404        C  0.86217130  0.54705444  0.35899506    -0.10500
C405        C  0.84073868  0.51888728  0.33290480    -0.00500
C406        C  0.79944731  0.52202887  0.32728478    -0.05700
H407        H  0.78425387  0.60575326  0.39104094     0.06800
H408        H  0.85616198  0.49444326  0.31651363     0.10200
Br409      Br  0.73281171  0.49401490  0.42159400    -0.05400
Br410      Br  0.65737784  0.63200136  0.27808138    -0.02300
Br411      Br  0.86575602  0.61869032  0.41803482     0.00500
Br412      Br  0.77268421  0.48342438  0.28925560    -0.03900
C413        C  0.59300911  0.62510662  0.36322000    -0.11300
C414        C  0.61089133  0.66130658  0.37578966     0.04200
C415        C  0.58917425  0.69541903  0.37324835    -0.11800
C416        C  0.54996681  0.69575317  0.35789329     0.19100
C417        C  0.53325886  0.66179533  0.33961410    -0.08800
C418        C  0.55475324  0.62714768  0.34162154    -0.01800
H419        H  0.60255845  0.72204361  0.38561011     0.05600
C420        C  0.52730933  0.73187589  0.36469241     0.21000
H421        H  0.53893047  0.60158975  0.33125643     0.10800
C422        C  0.53034452  0.76057405  0.32776302    -0.15200
C423        C  0.51783394  0.79825407  0.33796128     0.03800
C424        C  0.50241147  0.80772721  0.38613662    -0.10500
C425        C  0.49666795  0.77827806  0.42172929    -0.00500
C426        C  0.50926455  0.74067182  0.41150816    -0.05700
H427        H  0.54411578  0.75401572  0.29164670     0.06800
H428        H  0.48446448  0.78492238  0.45869414     0.10200
Br429      Br  0.47983472  0.66087180  0.31609309    -0.05400
Br430      Br  0.66411557  0.66884237  0.39910366    -0.02300
Br431      Br  0.52223316  0.83534734  0.28452779     0.00500
Br432      Br  0.50429741  0.70309468  0.46419035    -0.03900
C433        C  0.44821253  0.40124443  0.31253164    -0.11300
C434        C  0.48111731  0.39047535  0.34320842     0.04200
C435        C  0.50619945  0.41916471  0.36191824    -0.11800
C436        C  0.49902825  0.45819072  0.35270480     0.19100
C437        C  0.46355298  0.46911118  0.33026225    -0.08800
C438        C  0.43882807  0.44116195  0.31081354    -0.01800
H439        H  0.53321307  0.41083822  0.38068980     0.05600
C440        C  0.53045409  0.48695630  0.36084080     0.21000
H441        H  0.41346149  0.45109719  0.28988907     0.10800
C442        C  0.54671853  0.50632766  0.31911912    -0.15200
C443        C  0.57335801  0.53677255  0.32490077     0.03800
C444        C  0.58384472  0.54943577  0.37385712    -0.10500
C445        C  0.57226173  0.52464343  0.41438743    -0.00500
C446        C  0.54441932  0.49546414  0.40872341    -0.05700
H447        H  0.53776491  0.49821808  0.28159232     0.06800
H448        H  0.58362805  0.52812453  0.45183474     0.10200
Br449      Br  0.44888856  0.52218503  0.32199378    -0.05400
Br450      Br  0.49997831  0.33933653  0.35689225    -0.02300
Br451      Br  0.59278755  0.55903662  0.26344309     0.00500
Br452      Br  0.52419708  0.47030000  0.46816682    -0.03900
C453        C  0.64237706  0.59608981  0.70123983    -0.11300
C454        C  0.62991511  0.56253802  0.67442723     0.04200
C455        C  0.61663506  0.56615737  0.62494008    -0.11800
C456        C  0.61313983  0.60223281  0.60239660     0.19100
C457        C  0.61561626  0.63507213  0.63184265    -0.08800
C458        C  0.62778434  0.63158962  0.68135930    -0.01800
H459        H  0.61183801  0.54053931  0.60264694     0.05600
C460        C  0.61165208  0.60463349  0.54752682     0.21000
H461        H  0.62626000  0.65775113  0.70287595     0.10800
C462        C  0.57546456  0.60269382  0.52341625    -0.15200
C463        C  0.57400082  0.59949313  0.47109508     0.03800
C464        C  0.60996820  0.59413675  0.44192957    -0.10500
C465        C  0.64600599  0.59832407  0.46781192    -0.00500
C466        C  0.64682633  0.60552115  0.51903500    -0.05700
H467        H  0.54820312  0.60326929  0.54557873     0.06800
H468        H  0.67433722  0.59814656  0.44842312     0.10200
Br469      Br  0.60469085  0.68529357  0.60513239    -0.05400
Br470      Br  0.63388551  0.51010714  0.69678459    -0.02300
Br471      Br  0.52092114  0.59835323  0.44542094     0.00500
Br472      Br  0.69670817  0.61925049  0.54723023    -0.03900
C473        C  0.67014884  0.63841537  0.77073398    -0.11300
C474        C  0.69227540  0.66610448  0.74163195     0.04200
C475        C  0.68508680  0.70541654  0.74783222    -0.11800
C476        C  0.65808897  0.71905676  0.78404424     0.19100
C477        C  0.64230891  0.69267709  0.81928087    -0.08800
C478        C  0.64942997  0.65296948  0.81348821    -0.01800
H479        H  0.69833094  0.72537614  0.72110555     0.05600
C480        C  0.64347849  0.75949674  0.77897751     0.21000
H481        H  0.63670913  0.63384701  0.84137418     0.10800
C482        C  0.60320881  0.76599851  0.76889169    -0.15200
C483        C  0.58963191  0.80198134  0.75197023     0.03800
C484        C  0.61692999  0.83221953  0.74290090    -0.10500
C485        C  0.65673754  0.82627544  0.75640271    -0.00500
C486        C  0.66991698  0.79070857  0.77478608    -0.05700
H487        H  0.58240594  0.74237647  0.77185835     0.06800
H488        H  0.67808972  0.84930845  0.75201450     0.10200
Br489      Br  0.61035862  0.70959767  0.87533447    -0.05400
Br490      Br  0.72669648  0.65430016  0.68529385    -0.02300
Br491      Br  0.53381642  0.80672053  0.74018905     0.00500
Br492      Br  0.72446983  0.78610153  0.79357811    -0.03900
C493        C  0.70988837  0.58037436  0.74960056    -0.11300
C494        C  0.73057877  0.56277731  0.70774642     0.04200
C495        C  0.76976771  0.55059373  0.71260082    -0.11800
C496        C  0.79081941  0.55628922  0.75644026     0.19100
C497        C  0.77245667  0.57479478  0.79720793    -0.08800
C498        C  0.73269591  0.58630784  0.79382577    -0.01800
H499        H  0.78483591  0.53695576  0.68089283     0.05600
C500        C  0.83240754  0.54319897  0.75598461     0.21000
H501        H  0.71905124  0.59933387  0.82683249     0.10800
C502        C  0.86062846  0.56639024  0.73143921    -0.15200
C503        C  0.89597679  0.55063084  0.71228697     0.03800
C504        C  0.90312152  0.51068323  0.71721333    -0.10500
C505        C  0.87643555  0.48842222  0.74610312    -0.00500
C506        C  0.84140056  0.50439418  0.76555221    -0.05700
H507        H  0.85361073  0.59621245  0.72342571     0.06800
H508        H  0.88190806  0.45798532  0.75169487     0.10200
Br509      Br  0.80031070  0.58397266  0.85827535    -0.05400
Br510      Br  0.71395177  0.55499822  0.64017320    -0.02300
Br511      Br  0.93037174  0.58463978  0.67504136     0.00500
Br512      Br  0.80500523  0.47128463  0.80077867    -0.03900
C513        C  0.44041497  0.39895379  0.22146704    -0.11300
C514        C  0.48087967  0.40262889  0.20469793     0.04200
C515        C  0.48951070  0.41640373  0.15639602    -0.11800
C516        C  0.45921212  0.42668702  0.12376171     0.19100
C517        C  0.42043745  0.43018333  0.14276609    -0.08800
C518        C  0.41189386  0.41853937  0.19192022    -0.01800
H519        H  0.51971077  0.41456014  0.14195343     0.05600
C520        C  0.46649658  0.42123790  0.06954168     0.21000
H521        H  0.38189343  0.42330930  0.20513208     0.10800
C522        C  0.47553506  0.38400893  0.05374294    -0.15200
C523        C  0.48136846  0.37512687  0.00320546     0.03800
C524        C  0.47346864  0.40359328  0.96540667    -0.10500
C525        C  0.46836839  0.44209485  0.98288353    -0.00500
C526        C  0.46488539  0.45092782  0.03407561    -0.05700
H527        H  0.47939084  0.36157904  0.08175167     0.06800
H528        H  0.46489847  0.46537732  0.95612622     0.10200
Br529      Br  0.37685836  0.44509278  0.10128763    -0.05400
Br530      Br  0.52633453  0.38296399  0.23915781    -0.02300
Br531      Br  0.50811429  0.32644929  0.99570312     0.00500
Br532      Br  0.45807512  0.50359615  0.05376548    -0.03900
C533        C  0.42766796  0.40497597  0.88818817    -0.11300
C534        C  0.41507531  0.39551810  0.83830923     0.04200
C535        C  0.37482910  0.39790525  0.82540546    -0.11800
C536        C  0.34593063  0.40918338  0.86071807     0.19100
C537        C  0.35751694  0.41957109  0.90905754    -0.08800
C538        C  0.39721499  0.41760464  0.92220840    -0.01800
H539        H  0.36582271  0.38953566  0.78802997     0.05600
C540        C  0.30323556  0.40623832  0.84967196     0.21000
H541        H  0.40217458  0.42289201  0.96134855     0.10800
C542        C  0.28283799  0.37345164  0.86631391    -0.15200
C543        C  0.24137641  0.37275146  0.86864877     0.03800
C544        C  0.21938036  0.40568515  0.85407870    -0.10500
C545        C  0.24012557  0.43753235  0.83412132    -0.00500
C546        C  0.28166868  0.43793612  0.83178259    -0.05700
H547        H  0.29939905  0.34907007  0.88053559     0.06800
H548        H  0.22407499  0.46282710  0.82186800     0.10200
Br549      Br  0.31938249  0.43329381  0.96068677    -0.05400
Br550      Br  0.45005402  0.37718394  0.78545641    -0.02300
Br551      Br  0.21783930  0.32694361  0.89650846     0.00500
Br552      Br  0.30796039  0.48313631  0.80692375    -0.03900
C553        C  0.48078763  0.35398037  0.89299481    -0.11300
C554        C  0.45356347  0.32312958  0.90313873     0.04200
C555        C  0.46409691  0.28500181  0.89234630    -0.11800
C556        C  0.50279284  0.27494131  0.87782184     0.19100
C557        C  0.52921558  0.30494741  0.86465134    -0.08800
C558        C  0.51736085  0.34356677  0.86969760    -0.01800
H559        H  0.44276356  0.26244998  0.90021309     0.05600
C560        C  0.51531989  0.23353056  0.88112387     0.21000
H561        H  0.53851356  0.36516292  0.85813268     0.10800
C562        C  0.53553522  0.21576468  0.84049572    -0.15200
C563        C  0.54999698  0.17789232  0.84432607     0.03800
C564        C  0.54233494  0.15623863  0.88833938    -0.10500
C565        C  0.52028943  0.17297019  0.92752806    -0.00500
C566        C  0.50747475  0.21112036  0.92495349    -0.05700
H567        H  0.54053797  0.23150690  0.80577317     0.06800
H568        H  0.51451050  0.15667457  0.96170218     0.10200
Br569      Br  0.58346198  0.29586955  0.84491945    -0.05400
Br570      Br  0.40424057  0.32773032  0.94015431    -0.02300
Br571      Br  0.57905659  0.15680152  0.78812810     0.00500
Br572      Br  0.48181332  0.23024516  0.98496283    -0.03900
C573        C  0.50184720  0.42658106  0.88328599    -0.11300
C574        C  0.54024653  0.43288613  0.90417166     0.04200
C575        C  0.56290597  0.46481796  0.89001765    -0.11800
C576        C  0.55227414  0.48877753  0.84999865     0.19100
C577        C  0.51705810  0.48018133  0.82462281    -0.08800
C578        C  0.49110332  0.45209271  0.84386244    -0.01800
H579        H  0.59045761  0.46994174  0.90931526     0.05600
C580        C  0.58144445  0.51839401  0.83195129     0.21000
H581        H  0.46288539  0.45035632  0.82590062     0.10800
C582        C  0.62121348  0.50750662  0.82752842    -0.15200
C583        C  0.65045933  0.53192600  0.80790160     0.03800
C584        C  0.63983479  0.56937773  0.78859129    -0.10500
C585        C  0.59958617  0.58053907  0.79622709    -0.00500
C586        C  0.57135608  0.55651182  0.81948538    -0.05700
H587        H  0.62951240  0.47831670  0.83734507     0.06800
H588        H  0.58952225  0.60825670  0.78272264     0.10200
Br589      Br  0.50513644  0.50144554  0.75971800    -0.05400
Br590      Br  0.56614358  0.40027251  0.95206939    -0.02300
Br591      Br  0.70011082  0.50439023  0.80238619     0.00500
Br592      Br  0.52046956  0.57836822  0.83607332    -0.03900
loop_ 
_geom_bond_atom_site_label_1 
_geom_bond_atom_site_label_2 
_geom_bond_distance 
_geom_bond_site_symmetry_2 
_ccdc_geom_bond_type 
C1          C524   1.572       .  S
C1          C533   1.585       .  S
C1          C553   1.568       .  S
C1          C573   1.584       .  S
C2          C453   1.583       .  S
C2          C473   1.585       .  S
C2          C493   1.570       .  S
C2          C584   1.578       .  S
C3          C393   1.576       .  S
C3          C413   1.568       .  S
C3          C444   1.578       .  S
C3          C464   1.569       .  S
C4          C364   1.576       .  S
C4          C373   1.571       .  S
C4          C433   1.562       .  S
C4          C513   1.585       .  S
C5          C273   1.594       .  S
C5          C304   1.554       .  S
C5          C324   1.592       .  S
C5          C333   1.582       .  S
C6          C224   1.572       .  S
C6          C233   1.574       .  S
C6          C253   1.573       .  S
C6          C344   1.582       .  S
O7           C10   1.271       .  A
O7          Cd12   2.597       .  S
C8           O17   1.262       .  A
C8           O13   1.274       .  A
C8           C23   1.496   1_554  S
O9           C15   1.267       .  A
O9          Cd12   2.460       .  S
C10          O18   1.262       .  A
C10          C47   1.497       .  S
C11          O16   1.265       .  A
C11          O14   1.267       .  A
C11         C384   1.480       .  S
Cd12         O19   2.479       .  S
Cd12         O18   2.487       .  S
Cd12         O17   2.468       .  S
Cd12         O13   2.599       .  S
Cd12         O16   2.451       .  S
Cd12         O14   2.473       .  S
C15          O19   1.268       .  A
C15         C193   1.483       .  S
O20          C23   1.269       .  A
O20         Cd25   2.601       .  S
C21          O30   1.261       .  A
C21          O26   1.269       .  A
C21          C34   1.492       .  S
O22          C28   1.264       .  A
O22         Cd25   2.454       .  S
C23          O31   1.262       .  A
C24          O29   1.266       .  A
C24          O27   1.267       .  A
C24         C173   1.485       .  S
Cd25         O32   2.483       .  S
Cd25         O31   2.487       .  S
Cd25         O30   2.484       .  S
Cd25         O26   2.587       .  S
Cd25         O29   2.455       .  S
Cd25         O27   2.481       .  S
C28          O32   1.268       .  A
C28         C544   1.489       .  S
O33          C36   1.276       .  A
O33         Cd38   2.591   1_455  S
C34          O43   1.264       .  A
C34          O39   1.272       .  A
O35          C41   1.267       .  A
O35         Cd38   2.437       .  S
C36          O44   1.263   1_455  A
C36          C49   1.494       .  S
C37          O42   1.269       .  A
C37          O40   1.269   1_655  A
C37         C293   1.485       .  S
Cd38         O45   2.457       .  S
Cd38         O44   2.449       .  S
Cd38         O43   2.465   1_655  S
Cd38         O39   2.570   1_655  S
Cd38         O42   2.428       .  S
Cd38         O40   2.459   1_655  S
C41          O45   1.266       .  A
C41         C504   1.480       .  S
O46          C49   1.267       .  A
O46         Cd51   2.596   1_455  S
C47          O56   1.262       .  A
C47          O52   1.270       .  A
O48          C54   1.263       .  A
O48         Cd51   2.456       .  S
C49          O57   1.263   1_455  A
C50          O55   1.263   1_455  A
C50          O53   1.269       .  A
C50         C264   1.485       .  S
Cd51         O58   2.523       .  S
Cd51         O57   2.485       .  S
Cd51         O56   2.495   1_655  S
Cd51         O52   2.602   1_655  S
Cd51         O55   2.458       .  S
Cd51         O53   2.490   1_655  S
C54          O58   1.269       .  A
C54         C404   1.492       .  S
C59         C133   1.577       .  S
C59         C153   1.580       .  S
C59         C204   1.582       .  S
C59         C213   1.576       .  S
C60         C113   1.580       .  S
C60         C164   1.575       .  S
C60         C184   1.582       .  S
C60         C284   1.561       .  S
O61          C64   1.272   1_565  A
O61         Cd66   2.600   1_565  S
C62          O71   1.263       .  A
C62          O67   1.272   1_544  A
C62          C75   1.499       .  S
O63          C69   1.265       .  A
O63         Cd66   2.474       .  S
C64          O72   1.262       .  A
C64         C101   1.495   1_545  S
C65          O70   1.264       .  A
C65          O68   1.266       .  A
C65         C564   1.478       .  S
Cd66         O73   2.477       .  S
Cd66         O72   2.473       .  S
Cd66         O71   2.498   1_556  S
Cd66         O67   2.592   1_545  S
Cd66         O70   2.488       .  S
Cd66         O68   2.469       .  S
C69          O73   1.266       .  A
C69         C124   1.482       .  S
O74          C77   1.274       .  A
O74         Cd79   2.621   1_565  S
C75          O84   1.264       .  A
C75          O80   1.270   1_545  A
O76          C82   1.266   1_545  A
O76         Cd79   2.454       .  S
C77          O85   1.262       .  A
C77          C90   1.505       .  S
C78          O83   1.266       .  A
C78          O81   1.269       .  A
C78         C353   1.480       .  S
Cd79         O86   2.451   1_545  S
Cd79         O85   2.490   1_545  S
Cd79         O84   2.503       .  S
Cd79         O80   2.586   1_545  S
Cd79         O83   2.433       .  S
Cd79         O81   2.464       .  S
C82          O86   1.268       .  A
C82         C144   1.483       .  S
O87          C90   1.270       .  A
O87         Cd92   2.620       .  S
C88          O97   1.264       .  A
C88          O93   1.269       .  A
C88         C103   1.506       .  S
O89          C95   1.266       .  A
O89         Cd92   2.459       .  S
C90          O98   1.263       .  A
C91          O96   1.265       .  A
C91          O94   1.264       .  A
C91         C424   1.479       .  S
Cd92         O99   2.518       .  S
Cd92         O98   2.510       .  S
Cd92         O97   2.531       .  S
Cd92         O93   2.610       .  S
Cd92         O96   2.479       .  S
Cd92         O94   2.459       .  S
C95          O99   1.270       .  A
C95         C244   1.491       .  S
O100        C103   1.272       .  A
O100       Cd105   2.605       .  S
C101        O110   1.263       .  A
C101        O106   1.271       .  A
O102        C108   1.266       .  A
O102       Cd105   2.470       .  S
C103        O111   1.264       .  A
C104        O109   1.268       .  A
C104        O107   1.266   1_565  A
C104        C313   1.480   1_565  S
Cd105       O112   2.511       .  S
Cd105       O111   2.517       .  S
Cd105       O110   2.472       .  S
Cd105       O106   2.595       .  S
Cd105       O109   2.460       .  S
Cd105       O107   2.449   1_565  S
C108        O112   1.268       .  A
C108        C484   1.498       .  S
C113        C114   1.439       .  A
C113        C118   1.422       .  A
C114        C115   1.394       .  A
C114       Br130   1.928       .  S
C115        C116   1.391       .  A
C115        H119   1.084       .  S
C116        C120   1.481       .  S
C116        C117   1.402       .  A
C117        C118   1.404       .  A
C117       Br129   1.917   1_546  S
C118        H121   1.077       .  S
C120        C122   1.402       .  A
C120        C126   1.408       .  A
C122        C123   1.400       .  A
C122        H127   1.084       .  S
C123        C124   1.412       .  A
C123       Br131   1.920   1_545  S
C124        C125   1.406       .  A
C125        C126   1.401       .  A
C125        H128   1.083   1_556  S
C126       Br132   1.919   1_556  S
C133        C134   1.433       .  A
C133        C138   1.425       .  A
C134        C135   1.411       .  A
C134       Br150   1.924   1_554  S
C135        C136   1.401       .  A
C135        H139   1.083   1_554  S
C136        C140   1.477       .  S
C136        C137   1.394       .  A
C137        C138   1.384       .  A
C137       Br149   1.927       .  S
C138        H141   1.071       .  S
C140        C142   1.401       .  A
C140        C146   1.407       .  A
C142        C143   1.401       .  A
C142        H147   1.084       .  S
C143        C144   1.416       .  A
C143       Br151   1.921   1_565  S
C144        C145   1.406       .  A
C145        C146   1.396       .  A
C145        H148   1.083       .  S
C146       Br152   1.919       .  S
C153        C154   1.435       .  A
C153        C158   1.419   1_554  A
C154        C155   1.400       .  A
C154       Br170   1.923       .  S
C155        C156   1.398   1_554  A
C155        H159   1.084       .  S
C156        C160   1.497       .  S
C156        C157   1.410       .  A
C157        C158   1.402       .  A
C157       Br169   1.921       .  S
C158        H161   1.078       .  S
C160        C162   1.395       .  A
C160        C166   1.409   1_565  A
C162        C163   1.402   1_565  A
C162        H167   1.083       .  S
C163        C164   1.445   1_455  A
C163       Br171   1.934       .  S
C164        C165   1.417   1_655  A
C165        C166   1.400       .  A
C165        H168   1.083   1_456  S
C166       Br172   1.922   1_546  S
C173        C174   1.414       .  A
C173        C178   1.406       .  A
C174        C175   1.402       .  A
C174       Br190   1.921   1_455  S
C175        C176   1.405       .  A
C175        H179   1.084   1_455  S
C176        C180   1.486       .  S
C176        C177   1.409       .  A
C177        C178   1.399       .  A
C177       Br189   1.920       .  S
C178        H181   1.083       .  S
C180        C182   1.397       .  A
C180        C186   1.403   1_455  A
C182        C183   1.398       .  A
C182        H187   1.084       .  S
C183        C184   1.431   1_455  A
C183       Br191   1.914       .  S
C184        C185   1.422       .  A
C185        C186   1.401       .  A
C185        H188   1.080       .  S
C186       Br192   1.919   1_556  S
C193        C194   1.413       .  A
C193        C198   1.407       .  A
C194        C195   1.400       .  A
C194       Br210   1.921       .  S
C195        C196   1.403       .  A
C195        H199   1.084       .  S
C196        C200   1.483       .  S
C196        C197   1.406       .  A
C197        C198   1.403       .  A
C197       Br209   1.916   1_554  S
C198        H201   1.083       .  S
C200        C202   1.397       .  A
C200        C206   1.397       .  A
C202        C203   1.409       .  A
C202        H207   1.084       .  S
C203        C204   1.439       .  A
C203       Br211   1.920       .  S
C204        C205   1.426       .  A
C205        C206   1.395       .  A
C205        H208   1.083       .  S
C206       Br212   1.919       .  S
C213        C214   1.437       .  A
C213        C218   1.422       .  A
C214        C215   1.388       .  A
C214       Br230   1.925       .  S
C215        C216   1.390       .  A
C215        H219   1.085       .  S
C216        C220   1.461       .  S
C216        C217   1.396       .  A
C217        C218   1.392       .  A
C217       Br229   1.919       .  S
C218        H221   1.076       .  S
C220        C222   1.393       .  A
C220        C226   1.395       .  A
C222        C223   1.393       .  A
C222        H227   1.084       .  S
C223        C224   1.434       .  A
C223       Br231   1.926       .  S
C224        C225   1.422       .  A
C225        C226   1.387       .  A
C225        H228   1.073       .  S
C226       Br232   1.922       .  S
C233        C234   1.438       .  A
C233        C238   1.421       .  A
C234        C235   1.396       .  A
C234       Br250   1.922       .  S
C235        C236   1.393       .  A
C235        H239   1.084       .  S
C236        C240   1.489       .  S
C236        C237   1.404       .  A
C237        C238   1.407       .  A
C237       Br249   1.916       .  S
C238        H241   1.075       .  S
C240        C242   1.405       .  A
C240        C246   1.408       .  A
C242        C243   1.406       .  A
C242        H247   1.084       .  S
C243        C244   1.415       .  A
C243       Br251   1.919       .  S
C244        C245   1.407       .  A
C245        C246   1.401       .  A
C245        H248   1.083       .  S
C246       Br252   1.919       .  S
C253        C254   1.431       .  A
C253        C258   1.421       .  A
C254        C255   1.404       .  A
C254       Br270   1.927       .  S
C255        C256   1.399       .  A
C255        H259   1.084       .  S
C256        C260   1.485       .  S
C256        C257   1.404       .  A
C257        C258   1.400       .  A
C257       Br269   1.919   1_455  S
C258        H261   1.082       .  S
C260        C262   1.402       .  A
C260        C266   1.410       .  A
C262        C263   1.403   1_455  A
C262        H267   1.083   1_455  S
C263        C264   1.417   1_655  A
C263       Br271   1.920       .  S
C264        C265   1.403       .  A
C265        C266   1.398       .  A
C265        H268   1.084       .  S
C266       Br272   1.916       .  S
C273        C274   1.434       .  A
C273        C278   1.430       .  A
C274        C275   1.396       .  A
C274       Br290   1.905       .  S
C275        C276   1.389       .  A
C275        H279   1.085       .  S
C276        C280   1.466       .  S
C276        C277   1.391       .  A
C277        C278   1.389       .  A
C277       Br289   1.922       .  S
C278        H281   1.072       .  S
C280        C282   1.391       .  A
C280        C286   1.399       .  A
C282        C283   1.396       .  A
C282        H287   1.084       .  S
C283        C284   1.438       .  A
C283       Br291   1.925   1_545  S
C284        C285   1.418       .  A
C285        C286   1.388       .  A
C285        H288   1.072       .  S
C286       Br292   1.924       .  S
C293        C294   1.416   1_655  A
C293        C298   1.404       .  A
C294        C295   1.401   1_455  A
C294       Br310   1.920       .  S
C295        C296   1.404       .  A
C295        H299   1.084   1_655  S
C296        C300   1.483       .  S
C296        C297   1.411       .  A
C297        C298   1.395       .  A
C297       Br309   1.916       .  S
C298        H301   1.083       .  S
C300        C302   1.397       .  A
C300        C306   1.406       .  A
C302        C303   1.396       .  A
C302        H307   1.084       .  S
C303        C304   1.429       .  A
C303       Br311   1.922   1_655  S
C304        C305   1.413       .  A
C305        C306   1.404       .  A
C305        H308   1.081       .  S
C306       Br312   1.918       .  S
C313        C314   1.415       .  A
C313        C318   1.406   1_545  A
C314        C315   1.399       .  A
C314       Br330   1.921       .  S
C315        C316   1.400       .  A
C315        H319   1.084       .  S
C316        C320   1.473       .  S
C316        C317   1.405       .  A
C317        C318   1.398   1_545  A
C317       Br329   1.920   1_545  S
C318        H321   1.083       .  S
C320        C322   1.395       .  A
C320        C326   1.404       .  A
C322        C323   1.396       .  A
C322        H327   1.084       .  S
C323        C324   1.424       .  A
C323       Br331   1.926       .  S
C324        C325   1.418       .  A
C325        C326   1.402       .  A
C325        H328   1.081       .  S
C326       Br332   1.917       .  S
C333        C334   1.430       .  A
C333        C338   1.424       .  A
C334        C335   1.404       .  A
C334       Br350   1.924       .  S
C335        C336   1.402       .  A
C335        H339   1.084   1_655  S
C336        C340   1.481   1_645  S
C336        C337   1.400       .  A
C337        C338   1.392       .  A
C337       Br349   1.920   1_545  S
C338        H341   1.083       .  S
C340        C342   1.402       .  A
C340        C346   1.395       .  A
C342        C343   1.405       .  A
C342        H347   1.084       .  S
C343        C344   1.427       .  A
C343       Br351   1.917       .  S
C344        C345   1.429       .  A
C345        C346   1.392       .  A
C345        H348   1.077       .  S
C346       Br352   1.923   1_455  S
C353        C354   1.414       .  A
C353        C358   1.407       .  A
C354        C355   1.396       .  A
C354       Br370   1.922       .  S
C355        C356   1.402       .  A
C355        H359   1.084       .  S
C356        C360   1.477       .  S
C356        C357   1.406       .  A
C357        C358   1.400       .  A
C357       Br369   1.918       .  S
C358        H361   1.083       .  S
C360        C362   1.398       .  A
C360        C366   1.397       .  A
C362        C363   1.405       .  A
C362        H367   1.084       .  S
C363        C364   1.433       .  A
C363       Br371   1.918       .  S
C364        C365   1.424       .  A
C365        C366   1.389       .  A
C365        H368   1.073       .  S
C366       Br372   1.925       .  S
C373        C374   1.434       .  A
C373        C378   1.421       .  A
C374        C375   1.403       .  A
C374       Br390   1.929       .  S
C375        C376   1.398       .  A
C375        H379   1.084       .  S
C376        C380   1.474       .  S
C376        C377   1.398       .  A
C377        C378   1.392       .  A
C377       Br389   1.919       .  S
C378        H381   1.082       .  S
C380        C382   1.401       .  A
C380        C386   1.403       .  A
C382        C383   1.396       .  A
C382        H387   1.084       .  S
C383        C384   1.414       .  A
C383       Br391   1.922       .  S
C384        C385   1.408       .  A
C385        C386   1.401       .  A
C385        H388   1.083       .  S
C386       Br392   1.917       .  S
C393        C394   1.435       .  A
C393        C398   1.421       .  A
C394        C395   1.408       .  A
C394       Br410   1.928       .  S
C395        C396   1.401       .  A
C395        H399   1.084       .  S
C396        C400   1.488       .  S
C396        C397   1.402       .  A
C397        C398   1.397       .  A
C397       Br409   1.920       .  S
C398        H401   1.082       .  S
C400        C402   1.400       .  A
C400        C406   1.409       .  A
C402        C403   1.400       .  A
C402        H407   1.084       .  S
C403        C404   1.417       .  A
C403       Br411   1.922       .  S
C404        C405   1.408       .  A
C405        C406   1.407       .  A
C405        H408   1.083       .  S
C406       Br412   1.917       .  S
C413        C414   1.439       .  A
C413        C418   1.422       .  A
C414        C415   1.394       .  A
C414       Br430   1.927       .  S
C415        C416   1.390       .  A
C415        H419   1.084       .  S
C416        C420   1.477       .  S
C416        C417   1.400       .  A
C417        C418   1.405       .  A
C417       Br429   1.917       .  S
C418        H421   1.076       .  S
C420        C422   1.400       .  A
C420        C426   1.409       .  A
C422        C423   1.400       .  A
C422        H427   1.083       .  S
C423        C424   1.413       .  A
C423       Br431   1.920       .  S
C424        C425   1.404       .  A
C425        C426   1.399       .  A
C425        H428   1.084       .  S
C426       Br432   1.918       .  S
C433        C434   1.435       .  A
C433        C438   1.423       .  A
C434        C435   1.406       .  A
C434       Br450   1.922       .  S
C435        C436   1.399       .  A
C435        H439   1.084       .  S
C436        C440   1.478       .  S
C436        C437   1.396       .  A
C437        C438   1.388       .  A
C437       Br449   1.921       .  S
C438        H441   1.083       .  S
C440        C442   1.401       .  A
C440        C446   1.396       .  A
C442        C443   1.400       .  A
C442        H447   1.084       .  S
C443        C444   1.424       .  A
C443       Br451   1.912       .  S
C444        C445   1.428       .  A
C445        C446   1.394       .  A
C445        H448   1.079       .  S
C446       Br452   1.920       .  S
C453        C454   1.435       .  A
C453        C458   1.430       .  A
C454        C455   1.401       .  A
C454       Br470   1.920       .  S
C455        C456   1.394       .  A
C455        H459   1.084       .  S
C456        C460   1.461       .  S
C456        C457   1.388       .  A
C457        C458   1.389       .  A
C457       Br469   1.919       .  S
C458        H461   1.075       .  S
C460        C462   1.389       .  A
C460        C466   1.397       .  A
C462        C463   1.396       .  A
C462        H467   1.084       .  S
C463        C464   1.441       .  A
C463       Br471   1.926       .  S
C464        C465   1.414       .  A
C465        C466   1.384       .  A
C465        H468   1.078       .  S
C466       Br472   1.914       .  S
C473        C474   1.436       .  A
C473        C478   1.417       .  A
C474        C475   1.396       .  A
C474       Br490   1.923       .  S
C475        C476   1.396       .  A
C475        H479   1.084       .  S
C476        C480   1.494       .  S
C476        C477   1.408       .  A
C477        C478   1.408       .  A
C477       Br489   1.916       .  S
C478        H481   1.079       .  S
C480        C482   1.406       .  A
C480        C486   1.409       .  A
C482        C483   1.406       .  A
C482        H487   1.083       .  S
C483        C484   1.417       .  A
C483       Br491   1.920       .  S
C484        C485   1.410       .  A
C485        C486   1.402       .  A
C485        H488   1.083       .  S
C486       Br492   1.920       .  S
C493        C494   1.439       .  A
C493        C498   1.430       .  A
C494        C495   1.394       .  A
C494       Br510   1.909       .  S
C495        C496   1.388       .  A
C495        H499   1.086       .  S
C496        C500   1.473       .  S
C496        C497   1.396       .  A
C497        C498   1.402       .  A
C497       Br509   1.915       .  S
C498        H501   1.083       .  S
C500        C502   1.401       .  A
C500        C506   1.405       .  A
C502        C503   1.399       .  A
C502        H507   1.084       .  S
C503        C504   1.414       .  A
C503       Br511   1.920       .  S
C504        C505   1.406       .  A
C505        C506   1.396       .  A
C505        H508   1.083       .  S
C506       Br512   1.917       .  S
C513        C514   1.435       .  A
C513        C518   1.422       .  A
C514        C515   1.395       .  A
C514       Br530   1.921       .  S
C515        C516   1.396       .  A
C515        H519   1.084       .  S
C516        C520   1.470       .  S
C516        C517   1.399       .  A
C517        C518   1.392       .  A
C517       Br529   1.920       .  S
C518        H521   1.078       .  S
C520        C522   1.392       .  A
C520        C526   1.397       .  A
C522        C523   1.389       .  A
C522        H527   1.085       .  S
C523        C524   1.435   1_554  A
C523       Br531   1.924   1_554  S
C524        C525   1.426       .  A
C525        C526   1.398   1_556  A
C525        H528   1.083       .  S
C526       Br532   1.917       .  S
C533        C534   1.437       .  A
C533        C538   1.426       .  A
C534        C535   1.407       .  A
C534       Br550   1.927       .  S
C535        C536   1.398       .  A
C535        H539   1.083       .  S
C536        C540   1.478       .  S
C536        C537   1.396       .  A
C537        C538   1.390       .  A
C537       Br549   1.925       .  S
C538        H541   1.072       .  S
C540        C542   1.400       .  A
C540        C546   1.404       .  A
C542        C543   1.399       .  A
C542        H547   1.084       .  S
C543        C544   1.418       .  A
C543       Br551   1.922       .  S
C544        C545   1.409       .  A
C545        C546   1.401       .  A
C545        H548   1.083       .  S
C546       Br552   1.917       .  S
C553        C554   1.436       .  A
C553        C558   1.417       .  A
C554        C555   1.400       .  A
C554       Br570   1.925       .  S
C555        C556   1.398       .  A
C555        H559   1.083       .  S
C556        C560   1.501       .  S
C556        C557   1.413       .  A
C557        C558   1.405       .  A
C557       Br569   1.920       .  S
C558        H561   1.078       .  S
C560        C562   1.410       .  A
C560        C566   1.421       .  A
C562        C563   1.406       .  A
C562        H567   1.083       .  S
C563        C564   1.410       .  A
C563       Br571   1.918       .  S
C564        C565   1.396       .  A
C565        C566   1.395       .  A
C565        H568   1.084       .  S
C566       Br572   1.920       .  S
C573        C574   1.434       .  A
C573        C578   1.421       .  A
C574        C575   1.397       .  A
C574       Br590   1.921       .  S
C575        C576   1.399       .  A
C575        H579   1.084       .  S
C576        C580   1.499       .  S
C576        C577   1.408       .  A
C577        C578   1.403       .  A
C577       Br589   1.922       .  S
C578        H581   1.073       .  S
C580        C582   1.396       .  A
C580        C586   1.407       .  A
C582        C583   1.397       .  A
C582        H587   1.084       .  S
C583        C584   1.444       .  A
C583       Br591   1.930       .  S
C584        C585   1.422       .  A
C585        C586   1.403       .  A
C585        H588   1.083       .  S
C586       Br592   1.920       .  S
