geometry optimzed in LAMMPS
_audit_creation_date              2020-11-30 
_audit_creation_method            'lammps2cif' 
_symmetry_space_group_name_H-M    'P1' 
_symmetry_Int_Tables_number       1 
_symmetry_cell_setting            triclinic 
loop_ 
_symmetry_equiv_pos_as_xyz 
  x,y,z 
_cell_length_a                    51.74629425 
_cell_length_b                    51.59276525030057 
_cell_length_c                    51.63229446323021 
_cell_angle_alpha                 89.95931040068642 
_cell_angle_beta                  89.71569621563806 
_cell_angle_gamma                 90.03894815045611 
loop_ 
_atom_site_label 
_atom_site_type_symbol 
_atom_site_fract_x 
_atom_site_fract_y 
_atom_site_fract_z 
_atom_site_charge 
C1          C  0.01655023  0.26780552  0.22536363     0.79900
N2          N  0.99696343  0.27506647  0.24150674    -0.78400
C3          C  0.99080190  0.26104741  0.26283259     0.82300
N4          N  0.00458465  0.23959512  0.26819514    -0.78400
C5          C  0.02414032  0.23179075  0.25264024     0.82400
N6          N  0.03042681  0.24588863  0.23102664    -0.80100
O7          O  0.97787023  0.40413986  0.44869195    -0.80500
O8          O  0.98624529  0.55207592  0.45124094    -0.82000
O9          O  0.93962912  0.48086151  0.42109693    -0.79000
O10         O  0.02580741  0.47878979  0.41541971    -0.77400
O11         O  0.05804612  0.47728470  0.44549007    -0.79200
O12         O  0.91120508  0.48084402  0.45517099    -0.80100
O13         O  0.98284025  0.52177011  0.41912408    -0.81500
O14         O  0.97677760  0.43656505  0.41846654    -0.81800
Eu15       Eu  0.98382135  0.47865571  0.43943477     2.39200
O16         O  0.01227123  0.50386495  0.46449931    -0.89300
O17         O  0.95860953  0.45288239  0.46754927    -0.92900
C18         C  0.97479017  0.41257060  0.42535416     1.01800
C19         C  0.98394369  0.54541409  0.42727745     1.01600
C20         C  0.91646236  0.48133514  0.43071052     1.01600
C21         C  0.05000427  0.47845688  0.42191159     0.99400
H22         H  0.94896684  0.51636542  0.45865623     0.29200
O23         O  0.96016063  0.50498981  0.46837538    -1.01700
H24         H  0.02065073  0.43972869  0.45167959     0.29200
O25         O  0.01084823  0.45057005  0.46331311    -1.04200
O26         O  0.99019843  0.55008160  0.53605391    -0.81400
O27         O  0.99425282  0.40293088  0.53217570    -0.81000
O28         O  0.91479035  0.52288670  0.49850738    -0.79400
O29         O  0.06205052  0.51799129  0.48831617    -0.82700
O30         O  0.05917746  0.43353629  0.48905004    -0.80600
O31         O  0.91128630  0.43750906  0.49782287    -0.79200
O32         O  0.94799300  0.47628007  0.56965192    -0.80800
O33         O  0.03387364  0.47409583  0.56396683    -0.82700
O34         O  0.91591393  0.47991424  0.53963219    -0.79400
O35         O  0.06242603  0.47320272  0.53004103    -0.82100
O36         O  0.94692485  0.55323414  0.49617525    -0.77800
O37         O  0.94120053  0.40490710  0.49635314    -0.77900
O38         O  0.02816453  0.40192438  0.48840934    -0.77500
O39         O  0.03206138  0.55036672  0.49088666    -0.81000
O40         O  0.99048440  0.51853101  0.56724145    -0.80400
O41         O  0.99801657  0.43354972  0.56404152    -0.78800
Eu42       Eu  0.98865504  0.53014701  0.49323813     2.39800
Eu43       Eu  0.98514642  0.42444509  0.49107959     2.39600
Eu44       Eu  0.93476769  0.47918871  0.49617855     2.38400
Eu45       Eu  0.03879270  0.47633538  0.48890118     2.39900
Eu46       Eu  0.98976032  0.47644824  0.54534654     2.39800
O47         O  0.01250918  0.45089346  0.51552346    -0.93200
O48         O  0.96326710  0.50422520  0.52096699    -0.92100
C49         C  0.99047152  0.54240649  0.55982375     1.02000
C50         C  0.99982751  0.41014143  0.55539063     1.00700
C51         C  0.92285084  0.54665573  0.49798434     1.00100
C52         C  0.05566111  0.54216892  0.48919512     1.02100
C53         C  0.05210938  0.40955205  0.48895214     1.01000
C54         C  0.91756755  0.41324673  0.49795794     0.99900
C55         C  0.92388143  0.47823379  0.56318556     0.99900
C56         C  0.05705539  0.47253247  0.55450507     1.02600
H57         H  0.95120536  0.44009853  0.53183556     0.29900
O58         O  0.96135758  0.45079878  0.52039560    -1.05300
H59         H  0.02721893  0.51305554  0.52816682     0.32000
O60         O  0.01544471  0.50281502  0.51790429    -1.07900
C61         C  0.98312606  0.73678914  0.75643186     0.79900
N62         N  0.98644674  0.76088912  0.74564570    -0.78400
C63         C  0.98265426  0.76412796  0.71954458     0.82300
N64         N  0.97643805  0.74322338  0.70485368    -0.78400
C65         C  0.97353067  0.71940721  0.71544865     0.82400
N66         N  0.97680242  0.71642312  0.74119549    -0.80100
C67         C  0.04723366  0.26907468  0.75392622     0.79900
N68         N  0.03614264  0.24572377  0.74754226    -0.78400
C69         C  0.04109992  0.23500205  0.72370568     0.82300
N70         N  0.05626008  0.24787165  0.70657382    -0.78400
C71         C  0.06705505  0.27092194  0.71251564     0.82400
N72         N  0.06237674  0.28133338  0.73612216    -0.80100
C73         C  0.00743805  0.73607051  0.22636786     0.79900
N74         N  0.00271580  0.71873379  0.24559497    -0.78400
C75         C  0.00636720  0.72513129  0.27072746     0.82300
N76         N  0.01473010  0.74924293  0.27655552    -0.78400
C77         C  0.01929597  0.76710174  0.25778739     0.82400
N78         N  0.01578292  0.76052024  0.23236922    -0.80100
O79         O  0.02239184  0.04820334  0.41377114    -0.80500
O80         O  0.00915326  0.04636922  0.56134774    -0.82000
O81         O  0.97295576  0.07961018  0.48020860    -0.79000
O82         O  0.05518650  0.07712921  0.49970560    -0.77400
O83         O  0.08526416  0.04468916  0.50124546    -0.79200
O84         O  0.94168808  0.04848047  0.47705308    -0.80100
O85         O  0.01089712  0.07831939  0.53069534    -0.81500
O86         O  0.02198991  0.07943195  0.44516489    -0.81800
Eu87       Eu  0.01425497  0.05749932  0.48732486     2.39200
O88         O  0.03692240  0.02889252  0.51403363    -0.89300
O89         O  0.99015774  0.03202463  0.45843632    -0.92900
C90         C  0.02383336  0.07202431  0.42125442     1.01800
C91         C  0.01001469  0.07049855  0.55456154     1.01600
C92         C  0.94945839  0.07221538  0.47638106     1.01600
C93         C  0.07785332  0.06826620  0.50488241     0.99400
H94         H  0.97334290  0.04264901  0.52086459     0.29200
O95         O  0.98488504  0.03164726  0.51104661    -1.01700
H96         H  0.05513991  0.04183162  0.45386149     0.29200
O97         O  0.04294645  0.03103149  0.46313154    -1.04200
O98         O  0.00585011  0.96132825  0.56038452    -0.81400
O99         O  0.01835763  0.96380511  0.41144199    -0.81000
O100        O  0.93580708  0.00554707  0.52263101    -0.79400
O101        O  0.08375748  0.00337075  0.53526630    -0.82700
O102        O  0.09158193  0.00485496  0.44990277    -0.80600
O103        O  0.94336852  0.00625710  0.43715732    -0.79200
O104        O  0.97007930  0.93165236  0.48203129    -0.80800
O105        O  0.05441489  0.92907620  0.49028417    -0.82700
O106        O  0.93978659  0.96379462  0.47936175    -0.79400
O107        O  0.08624148  0.95964170  0.49335968    -0.82100
O108        O  0.96446426  0.00548766  0.55627371    -0.77800
O109        O  0.97765833  0.00801661  0.40909471    -0.77900
O110        O  0.06232027  0.00488544  0.41689531    -0.77500
O111        O  0.04921835  0.00480117  0.56302284    -0.81000
O112        O  0.00802955  0.93025752  0.52887829    -0.80400
O113        O  0.01535852  0.93183599  0.44204476    -0.78800
Eu114      Eu  0.00850640  0.00404239  0.53884352     2.39800
Eu115      Eu  0.01819411  0.00555050  0.43433246     2.39600
Eu116      Eu  0.96122825  0.00575439  0.48184985     2.38400
Eu117      Eu  0.06600201  0.00284303  0.49077940     2.39900
Eu118      Eu  0.01273322  0.95169500  0.48587995     2.39800
O119        O  0.04168262  0.97761133  0.46179420    -0.93200
O120        O  0.98450903  0.97843303  0.50994888    -0.92100
C121        C  0.00605903  0.93741223  0.55289358     1.02000
C122        C  0.01713115  0.93973917  0.41824163     1.00700
C123        C  0.94135813  0.00565704  0.54705079     1.00100
C124        C  0.07373829  0.00447970  0.55826397     1.02100
C125        C  0.08568070  0.00511070  0.42553192     1.01000
C126        C  0.95310823  0.00755686  0.41401001     0.99900
C127        C  0.94661454  0.93978576  0.47985396     0.99900
C128        C  0.07828823  0.93588457  0.49304170     1.02600
H129        H  0.97952785  0.96898706  0.44603880     0.29900
O130        O  0.98949274  0.97925796  0.45796786    -1.05300
H131        H  0.04625391  0.96620334  0.52657175     0.32000
O132        O  0.03679532  0.97720130  0.51483681    -1.07900
C133        C  0.21924974  0.24209338  0.51145354     0.79900
N134        N  0.24106510  0.22909640  0.50362364    -0.78400
C135        C  0.25096807  0.20981372  0.51902981     0.82300
N136        N  0.23832117  0.20349245  0.54129276    -0.78400
C137        C  0.21652890  0.21592401  0.54882263     0.82400
N138        N  0.20723463  0.23514081  0.53373840    -0.80100
C139        C  0.72144566  0.21378342  0.46860656     0.79900
N140        N  0.74079772  0.20018225  0.45702093    -0.78400
C141        C  0.76483089  0.21028979  0.45443217     0.82300
N142        N  0.76951732  0.23437590  0.46348191    -0.78400
C143        C  0.75073486  0.24847036  0.47510422     0.82400
N144        N  0.72650063  0.23810348  0.47810608    -0.80100
C145        C  0.73827296  0.75811962  0.48095825     0.79900
N146        N  0.75802085  0.77466034  0.47569405    -0.78400
C147        C  0.78288964  0.76707009  0.47816796     0.82300
N148        N  0.78797489  0.74260150  0.48589006    -0.78400
C149        C  0.76869543  0.72559230  0.49106873     0.82400
N150        N  0.74352465  0.73331321  0.48877033    -0.80100
C151        C  0.22716474  0.70741658  0.50339346     0.79900
N152        N  0.21162438  0.72618480  0.51326506    -0.78400
C153        C  0.22110277  0.74963453  0.52006601     0.82300
N154        N  0.24660159  0.75436444  0.51676791    -0.78400
C155        C  0.26266625  0.73611645  0.50679778     0.82400
N156        N  0.25295717  0.71242491  0.49973380    -0.80100
C157        C  0.74470147  0.99762838  0.22152452     0.79900
N158        N  0.72618612  0.99878326  0.24008038    -0.78400
C159        C  0.73234226  0.99949917  0.26547758     0.82300
N160        N  0.75753102  0.99894125  0.27240115    -0.78400
C161        C  0.77655175  0.99779488  0.25424220     0.82400
N162        N  0.77021376  0.99690780  0.22849443    -0.80100
O163        O  0.43915553  0.04539688  0.49039448    -0.80500
O164        O  0.45471978  0.89884807  0.49771621    -0.82000
O165        O  0.41362666  0.96285950  0.45302646    -0.79000
O166        O  0.41959864  0.96529073  0.53923180    -0.77400
O167        O  0.45297575  0.97160710  0.56747351    -0.79200
O168        O  0.44311773  0.96447122  0.41987937    -0.80100
O169        O  0.41950030  0.92564906  0.49691136    -0.81500
O170        O  0.41039095  0.01192120  0.49428746    -0.81800
Eu171      Eu  0.43604357  0.97091252  0.49454771     2.39200
O172        O  0.46750696  0.94976592  0.51967243    -0.89300
O173        O  0.45797678  0.99824441  0.46500540    -0.92900
C174        C  0.41594177  0.03640005  0.49235170     1.01800
C175        C  0.43010691  0.90293131  0.49814439     1.01600
C176        C  0.42013290  0.96069760  0.42887240     1.01600
C177        C  0.42933154  0.96593346  0.56226922     0.99400
H178        H  0.45424195  0.93378015  0.45870229     0.29200
O179        O  0.46411388  0.94661396  0.46795595    -1.01700
H180        H  0.45029654  0.01114577  0.52951313     0.29200
O181        O  0.46133705  0.00094504  0.51829491    -1.04200
O182        O  0.53829457  0.90735380  0.48898031    -0.81400
O183        O  0.52343953  0.05362490  0.48318577    -0.81000
O184        O  0.48951995  0.92942823  0.41903923    -0.79400
O185        O  0.49789078  0.93690824  0.56640177    -0.82700
O186        O  0.48990060  0.02303501  0.56316437    -0.80600
O187        O  0.47843288  0.01545674  0.41511920    -0.79200
O188        O  0.55872644  0.98154992  0.44303524    -0.80800
O189        O  0.56404260  0.99067488  0.52692778    -0.82700
O190        O  0.52612541  0.97746670  0.41353882    -0.79400
O191        O  0.53564201  0.98955055  0.56095711    -0.82100
O192        O  0.49244266  0.90055469  0.45258909    -0.77800
O193        O  0.47751396  0.04729351  0.44584197    -0.77900
O194        O  0.48656751  0.05171175  0.52954178    -0.77500
O195        O  0.49810551  0.90457873  0.53615335    -0.81000
O196        O  0.56677584  0.94106204  0.48580519    -0.80400
O197        O  0.55817798  0.02612415  0.48368399    -0.78800
Eu198      Eu  0.49446845  0.92458784  0.49335128     2.39800
Eu199      Eu  0.48327669  0.02799805  0.48851941     2.39600
Eu200      Eu  0.48560380  0.97359549  0.43800172     2.38400
Eu201      Eu  0.49274770  0.97907918  0.54348069     2.39900
Eu202      Eu  0.54104036  0.98143452  0.48684962     2.39800
O203        O  0.51366325  0.00589744  0.51347555    -0.93200
O204        O  0.51604747  0.95148480  0.46357402    -0.92100
C205        C  0.56132246  0.91658683  0.48636417     1.02000
C206        C  0.54799976  0.04898256  0.48241940     1.00700
C207        C  0.49087180  0.90612441  0.42830082     1.00100
C208        C  0.49868405  0.91267854  0.55976331     1.02100
C209        C  0.48882338  0.04634223  0.55384712     1.01000
C210        C  0.47631335  0.03946917  0.42218564     0.99900
C211        C  0.55011524  0.98008057  0.41971061     0.99900
C212        C  0.55824759  0.99368083  0.55104567     1.02600
H213        H  0.51929829  0.01502966  0.44940280     0.29900
O214        O  0.51054332  0.00359178  0.46136406    -1.05300
H215        H  0.53296071  0.94480878  0.52738681     0.32000
O216        O  0.52033157  0.95386835  0.51699851    -1.07900
C217        C  0.27404394  0.98772183  0.75573441     0.79900
N218        N  0.25146340  0.99698180  0.74563616    -0.78400
C219        C  0.24060911  0.98458445  0.72494084     0.82300
N220        N  0.25306521  0.96422189  0.71393578    -0.78400
C221        C  0.27584610  0.95558395  0.72329717     0.82400
N222        N  0.28606939  0.96737096  0.74429302    -0.80100
C223        C  0.73500955  0.01849253  0.74165884     0.79900
N224        N  0.75914899  0.01597945  0.73081453    -0.78400
C225        C  0.76383677  0.02639980  0.70675551     0.82300
N226        N  0.74442834  0.03878893  0.69428032    -0.78400
C227        C  0.72068601  0.04122513  0.70487195     0.82400
N228        N  0.71614680  0.03088672  0.72845689    -0.80100
C229        C  0.27744161  0.97696456  0.21961383     0.79900
N230        N  0.28804075  0.95738681  0.23348114    -0.78400
C231        C  0.27858135  0.95017447  0.25677812     0.82300
N232        N  0.25784487  0.96284474  0.26652814    -0.78400
C233        C  0.24648691  0.98238156  0.25315799     0.82400
N234        N  0.25652886  0.98992956  0.22966679    -0.80100
O235        O  0.58788891  0.99979461  0.02321175    -0.80500
O236        O  0.44067125  0.01117134  0.03152806    -0.82000
O237        O  0.52482103  0.04215764  0.06133706    -0.79000
O238        O  0.50879400  0.95827787  0.05648472    -0.77400
O239        O  0.50518300  0.92936447  0.02313345    -0.79200
O240        O  0.52530627  0.07494970  0.03148352    -0.80100
O241        O  0.47263057  0.00631466  0.06159267    -0.81500
O242        O  0.55900586  0.99854297  0.05689650    -0.81800
Eu243      Eu  0.51459080  0.00213914  0.03825672     2.39200
O244        O  0.48513535  0.98057102  0.01133550    -0.89300
O245        O  0.54060831  0.02736342  0.01079330    -0.92900
C246        C  0.58235722  0.99926974  0.04761129     1.01800
C247        C  0.44860675  0.00913755  0.05512833     1.01600
C248        C  0.52846016  0.06596373  0.05461110     1.01600
C249        C  0.50553806  0.93516755  0.04737059     0.99400
H250        H  0.48039605  0.04427082  0.02688932     0.29200
O251        O  0.48948134  0.03300166  0.01512564    -1.01700
H252        H  0.54749596  0.96281811  0.01881371     0.29200
O253        O  0.53721191  0.97506168  0.00914273    -1.04200
O254        O  0.43736533  0.01352364  0.94640698    -0.81400
O255        O  0.58378443  0.99980727  0.93883794    -0.81000
O256        O  0.47515399  0.08383547  0.98925108    -0.79400
O257        O  0.46190688  0.93642507  0.98529344    -0.82700
O258        O  0.54847889  0.92836240  0.97985761    -0.80600
O259        O  0.56064002  0.07629614  0.98775327    -0.79200
O260        O  0.51841207  0.05125447  0.91374908    -0.80800
O261        O  0.50320267  0.96687501  0.90939764    -0.82700
O262        O  0.52123682  0.08072337  0.94677342    -0.79400
O263        O  0.50223175  0.93436626  0.93952916    -0.82100
O264        O  0.44218532  0.05443323  0.98799983    -0.77800
O265        O  0.58839753  0.04189678  0.98476486    -0.77900
O266        O  0.58189185  0.95737150  0.97961590    -0.77500
O267        O  0.43451375  0.97096829  0.98971717    -0.81000
O268        O  0.46626713  0.01401030  0.91277268    -0.80400
O269        O  0.55148574  0.00237868  0.90891227    -0.78800
Eu270      Eu  0.46033514  0.01069583  0.98804327     2.39800
Eu271      Eu  0.56392507  0.00094060  0.98232325     2.39600
Eu272      Eu  0.51630194  0.05815959  0.98796308     2.38400
Eu273      Eu  0.50723978  0.95311510  0.98256083     2.39900
Eu274      Eu  0.50980330  0.00819667  0.93226407     2.39800
O275        O  0.53457974  0.97823647  0.95600211    -0.93200
O276        O  0.48717502  0.03583518  0.96106228    -0.92100
C277        C  0.44292115  0.01463805  0.92197931     1.02000
C278        C  0.57557751  0.00007375  0.91523525     1.00700
C279        C  0.45077147  0.07788181  0.98838610     1.00100
C280        C  0.43907612  0.94643755  0.98828254     1.02100
C281        C  0.57288259  0.93410065  0.97918562     1.01000
C282        C  0.58360047  0.06639548  0.98693730     0.99900
C283        C  0.52248208  0.07428069  0.92268917     0.99900
C284        C  0.50090929  0.94284124  0.91607513     1.02600
H285        H  0.55105662  0.04054881  0.94868037     0.29900
O286        O  0.53901924  0.03065048  0.95909712    -1.05300
H287        H  0.46998770  0.97406992  0.94872488     0.32000
O288        O  0.48247661  0.98325292  0.95915048    -1.07900
C289        C  0.48745755  0.19371213  0.24571909     0.79900
N290        N  0.51069418  0.18410317  0.23824741    -0.78400
C291        C  0.52560196  0.19675426  0.22074932     0.82300
N292        N  0.51682379  0.21921011  0.21049004    -0.78400
C293        C  0.49347999  0.22909250  0.21737696     0.82400
N294        N  0.47845516  0.21614639  0.23497925    -0.80100
C295        C  0.46614669  0.72525235  0.21361437     0.79900
N296        N  0.47236306  0.73070962  0.23871548    -0.78400
C297        C  0.46870524  0.75524888  0.24795589     0.82300
N298        N  0.46019897  0.77416749  0.23186078    -0.78400
C299        C  0.45488777  0.76901337  0.20674507     0.82400
N300        N  0.45765182  0.74447743  0.19791896    -0.80100
C301        C  0.47517146  0.71672021  0.76254848     0.79900
N302        N  0.48041028  0.72277784  0.73715517    -0.78400
C303        C  0.47870629  0.74813207  0.72927595     0.82300
N304        N  0.47250505  0.76676158  0.74671453    -0.78400
C305        C  0.46792558  0.76090244  0.77178910     0.82400
N306        N  0.46917498  0.73593040  0.77946481    -0.80100
C307        C  0.51366667  0.21485914  0.72246114     0.79900
N308        N  0.53503914  0.20586941  0.73473639    -0.78400
C309        C  0.54324806  0.21669668  0.75710187     0.82300
N310        N  0.53000015  0.23693825  0.76702367    -0.78400
C311        C  0.50859879  0.24625166  0.75536789     0.82400
N312        N  0.49984438  0.23487023  0.73314801    -0.80100
O313        O  0.02163140  0.43134698  0.03219449    -0.80500
O314        O  0.01058279  0.57929458  0.02995088    -0.82000
O315        O  0.05938440  0.51330477  0.05861264    -0.79000
O316        O  0.97568123  0.50466519  0.06690768    -0.77400
O317        O  0.94194920  0.50301207  0.03843862    -0.79200
O318        O  0.08806542  0.51470969  0.02472253    -0.80100
O319        O  0.01482508  0.54933095  0.06234079    -0.81500
O320        O  0.02250844  0.46315277  0.06298153    -0.81800
Eu321      Eu  0.01588831  0.50585711  0.04163743     2.39200
O322        O  0.98528131  0.52960588  0.01761257    -0.89300
O323        O  0.04177752  0.48105304  0.01322685    -0.92900
C324        C  0.02381656  0.43907811  0.05588320     1.01800
C325        C  0.01341399  0.57294203  0.05393069     1.01600
C326        C  0.08223106  0.51655573  0.04899518     1.01600
C327        C  0.95135681  0.50409151  0.06154446     0.99400
H328        H  0.04803102  0.54534357  0.02149069     0.29200
O329        O  0.03751113  0.53311389  0.01213371    -1.01700
H330        H  0.98032427  0.46608086  0.03028566     0.29200
O331        O  0.98919744  0.47731306  0.01822025    -1.04200
O332        O  0.00432223  0.57824124  0.94628418    -0.81400
O333        O  0.01215237  0.42961715  0.94766601    -0.81000
O334        O  0.08177481  0.55405186  0.98144758    -0.79400
O335        O  0.93446179  0.54272486  0.99400277    -0.82700
O336        O  0.94063202  0.45677700  0.99752764    -0.80600
O337        O  0.08838460  0.46671608  0.98412739    -0.79200
O338        O  0.04664006  0.50830079  0.91173922    -0.80800
O339        O  0.96305814  0.50026897  0.91928617    -0.82700
O340        O  0.08065229  0.51203808  0.93966364    -0.79400
O341        O  0.93455741  0.49796229  0.95322003    -0.82100
O342        O  0.04730171  0.58158476  0.98457933    -0.77800
O343        O  0.05857016  0.43409723  0.98716118    -0.77900
O344        O  0.97430262  0.42809693  0.99581558    -0.77500
O345        O  0.96364892  0.57583702  0.99066034    -0.81000
O346        O  0.00423545  0.54722228  0.91473068    -0.80400
O347        O  0.00813692  0.46054864  0.91619977    -0.78800
Eu348      Eu  0.00715079  0.55683085  0.98836287     2.39800
Eu349      Eu  0.01496546  0.45240371  0.98984564     2.39600
Eu350      Eu  0.06414241  0.50870831  0.98421742     2.38400
Eu351      Eu  0.95878531  0.50116031  0.99392100     2.39900
Eu352      Eu  0.00681120  0.50395577  0.93665612     2.39800
O353        O  0.98480701  0.47636644  0.96572156    -0.93200
O354        O  0.03323514  0.53216003  0.96042977    -0.92100
C355        C  0.00380903  0.57120516  0.92235643     1.02000
C356        C  0.01009466  0.43666847  0.92369476     1.00700
C357        C  0.07173237  0.57712746  0.98240227     1.00100
C358        C  0.94031533  0.56711721  0.99242164     1.02100
C359        C  0.94999963  0.43350593  0.99806755     1.01000
C360        C  0.08204770  0.44237052  0.98534435     0.99900
C361        C  0.07075311  0.51180816  0.91675239     0.99900
C362        C  0.94002392  0.49832781  0.92877815     1.02600
H363        H  0.04781254  0.46978195  0.94918794     0.29900
O364        O  0.03731291  0.47998539  0.96076823    -1.05300
H365        H  0.96842189  0.53860926  0.95452126     0.32000
O366        O  0.98062402  0.52868836  0.96461426    -1.07900
C367        C  0.75766793  0.48720195  0.25681920     0.79900
N368        N  0.73338545  0.48399625  0.24689256    -0.78400
C369        C  0.72865201  0.49121607  0.22178731     0.82300
N370        N  0.74834268  0.50070398  0.20699882    -0.78400
C371        C  0.77251050  0.50319789  0.21669021     0.82400
N372        N  0.77686289  0.49646682  0.24154526    -0.80100
C373        C  0.25532334  0.50737860  0.22798895     0.79900
N374        N  0.24449166  0.50162337  0.25152317    -0.78400
C375        C  0.22221227  0.51394577  0.25902179     0.82300
N376        N  0.21096543  0.53121123  0.24266103    -0.78400
C377        C  0.22157562  0.53669725  0.21927799     0.82400
N378        N  0.24361986  0.52460031  0.21216750    -0.80100
C379        C  0.25702931  0.48598263  0.75370181     0.79900
N380        N  0.24516889  0.50685565  0.76425933    -0.78400
C381        C  0.22268533  0.51596671  0.75470325     0.82300
N382        N  0.21214946  0.50413958  0.73388806    -0.78400
C383        C  0.22363625  0.48328019  0.72278908     0.82400
N384        N  0.24597157  0.47355377  0.73310072    -0.80100
C385        C  0.75626632  0.49235652  0.72866785     0.79900
N386        N  0.73173548  0.48974934  0.73831882    -0.78400
C387        C  0.72642474  0.49815672  0.76295374     0.82300
N388        N  0.74574203  0.50854326  0.77741830    -0.78400
C389        C  0.77002486  0.51091805  0.76784880     0.82400
N390        N  0.77500474  0.50271464  0.74356026    -0.80100
C391        C  0.23640515  0.26527512  0.00357796     0.79900
N392        N  0.24936671  0.24328320  0.99597413    -0.78400
C393        C  0.26863477  0.23356324  0.01145393     0.82300
N394        N  0.27489882  0.24653634  0.03342245    -0.78400
C395        C  0.26263035  0.26850069  0.04064595     0.82400
N396        N  0.24345922  0.27762906  0.02556372    -0.80100
O397        O  0.48283210  0.43262707  0.06682471    -0.80500
O398        O  0.48817565  0.43436734  0.92019561    -0.82000
O399        O  0.44408048  0.40229919  0.00039446    -0.79000
O400        O  0.52917669  0.40164733  0.99728950    -0.77400
O401        O  0.56023420  0.43330817  0.99569951    -0.79200
O402        O  0.41293462  0.43375076  0.00031491    -0.80100
O403        O  0.48561926  0.40140813  0.94973689    -0.81500
O404        O  0.48358292  0.40089359  0.03589703    -0.81800
Eu405      Eu  0.48637117  0.42256964  0.99310288     2.39200
O406        O  0.51351246  0.44924786  0.96766019    -0.89300
O407        O  0.46003410  0.45007486  0.01797355    -0.92900
C408        C  0.48245582  0.40861142  0.05972422     1.01800
C409        C  0.48691237  0.41014779  0.92621216     1.01600
C410        C  0.42064343  0.41019145  0.00379992     1.01600
C411        C  0.55289783  0.40953870  0.99776192     0.99400
H412        H  0.44984053  0.43853777  0.95536056     0.29200
O413        O  0.46044048  0.44926558  0.96633994    -1.01700
H414        H  0.52199758  0.43828112  0.03157508     0.29200
O415        O  0.51175865  0.44901402  0.02025162    -1.04200
O416        O  0.48784599  0.51920742  0.91966886    -0.81400
O417        O  0.48274239  0.51800826  0.06745332    -0.81000
O418        O  0.41354737  0.47505546  0.94791616    -0.79400
O419        O  0.56088292  0.47553384  0.95169301    -0.82700
O420        O  0.55955927  0.47425082  0.03820639    -0.80600
O421        O  0.41100750  0.47693168  0.03443362    -0.79200
O422        O  0.44485009  0.54943710  0.99447074    -0.80800
O423        O  0.52920044  0.54897023  0.99634333    -0.82700
O424        O  0.41276202  0.51897727  0.99308406    -0.79400
O425        O  0.56039656  0.51760752  0.99691310    -0.82100
O426        O  0.44690740  0.47681695  0.91878793    -0.77800
O427        O  0.44166404  0.47504128  0.06616440    -0.77900
O428        O  0.52692704  0.47623446  0.06828614    -0.77500
O429        O  0.53026977  0.47598543  0.91992805    -0.81000
O430        O  0.48691383  0.55031265  0.95114089    -0.80400
O431        O  0.48494282  0.55006311  0.03689062    -0.78800
Eu432      Eu  0.48798137  0.47649833  0.94155915     2.39800
Eu433      Eu  0.48490524  0.47546809  0.04594181     2.39600
Eu434      Eu  0.43343424  0.47600469  0.99192868     2.38400
Eu435      Eu  0.53906160  0.47538996  0.99476083     2.39900
Eu436      Eu  0.48684137  0.52840399  0.99402793     2.39800
O437        O  0.51227909  0.50177264  0.02072217    -0.93200
O438        O  0.46083110  0.50274934  0.96692939    -0.92100
C439        C  0.48721808  0.54314666  0.92708670     1.02000
C440        C  0.48298793  0.54210049  0.06060739     1.00700
C441        C  0.42265450  0.47602753  0.92446561     1.00100
C442        C  0.55395980  0.47568369  0.92758463     1.02100
C443        C  0.55107944  0.47538425  0.06182048     1.01000
C444        C  0.41794720  0.47604337  0.05848262     0.99900
C445        C  0.42090899  0.54262175  0.99440741     0.99900
C446        C  0.55292888  0.54145186  0.99717345     1.02600
H447        H  0.44854894  0.51250376  0.02976994     0.29900
O448        O  0.45950758  0.50180150  0.01902969    -1.05300
H449        H  0.52499039  0.51335539  0.95760666     0.32000
O450        O  0.51395223  0.50248797  0.96815742    -1.07900
C451        C  0.72936187  0.75713864  0.98457224     0.79900
N452        N  0.70983285  0.73981182  0.98241876    -0.78400
C453        C  0.71457714  0.71438466  0.97876487     0.82300
N454        N  0.73933878  0.70615078  0.97748141    -0.78400
C455        C  0.75942343  0.72295193  0.97972956     0.82400
N456        N  0.75447818  0.74882027  0.98326885    -0.80100
C457        C  0.27227191  0.77545677  0.99389734     0.79900
N458        N  0.28788192  0.75640541  0.00295322    -0.78400
C459        C  0.27985486  0.73146272  0.00362597     0.82300
N460        N  0.25581726  0.72559497  0.99532254    -0.78400
C461        C  0.23974216  0.74415485  0.98628512     0.82400
N462        N  0.24803664  0.76935678  0.98510410    -0.80100
C463        C  0.77461029  0.27238347  0.02393200     0.79900
N464        N  0.75723074  0.28645645  0.03784169    -0.78400
C465        C  0.73392238  0.27635812  0.04442327     0.82300
N466        N  0.72821208  0.25186044  0.03719682    -0.78400
C467        C  0.74498603  0.23748358  0.02304926     0.82400
N468        N  0.76822630  0.24794801  0.01574528    -0.80100
C469        C  0.71295595  0.29308489  0.05440728    -0.03500
C470        C  0.68970014  0.28190918  0.06326104    -0.06100
C471        C  0.66717308  0.29675948  0.06484432    -0.21200
C472        C  0.66760168  0.32281257  0.05728899     0.24500
C473        C  0.69141546  0.33472433  0.05165652    -0.18800
C474        C  0.71397517  0.31997752  0.05031450    -0.08700
C475        C  0.64299988  0.33617957  0.05164711    -0.19000
C476        C  0.64024753  0.34883850  0.02901145    -0.23800
C477        C  0.61645774  0.36207166  0.02013156     0.26600
C478        C  0.61872697  0.37910592  0.99903473    -0.20600
C479        C  0.59754822  0.39344067  0.99065724    -0.10200
C480        C  0.57345932  0.39060515  0.00285160    -0.10800
C481        C  0.57065171  0.37252453  0.02299858    -0.03700
C482        C  0.59202524  0.35841647  0.03172108    -0.18800
H483        H  0.68844799  0.26128327  0.06699198     0.10300
H484        H  0.64904863  0.28735159  0.06964761     0.10300
H485        H  0.69224644  0.35506393  0.04649993     0.10000
H486        H  0.73161851  0.32924310  0.04375908     0.11100
H487        H  0.62690667  0.33368114  0.06493242     0.11200
H488        H  0.65680049  0.34977336  0.01597980     0.13100
H489        H  0.63722341  0.38205892  0.98954917     0.09600
H490        H  0.60016780  0.40740115  0.97517575     0.11700
H491        H  0.55227867  0.37037091  0.03292475     0.08300
H492        H  0.58929736  0.34506346  0.04763519     0.11100
C493        C  0.40176989  0.56367240  0.99691421    -0.03500
C494        C  0.37514474  0.55873254  0.99524625    -0.06100
C495        C  0.35739499  0.57885450  0.99859725    -0.21200
C496        C  0.36590824  0.60411746  0.00396592     0.24500
C497        C  0.39254502  0.60909255  0.00529561    -0.18800
C498        C  0.41022391  0.58909405  0.00189401    -0.08700
C499        C  0.34656298  0.62501541  0.00654672    -0.19000
C500        C  0.35117553  0.64766008  0.01863922    -0.23800
C501        C  0.33236318  0.66915559  0.01820857     0.26600
C502        C  0.34145156  0.69476409  0.01777579    -0.20600
C503        C  0.32428186  0.71531484  0.01412724    -0.10200
C504        C  0.29772623  0.71048556  0.01104295    -0.10800
C505        C  0.28855159  0.68495288  0.01325581    -0.03700
C506        C  0.30566108  0.66451018  0.01696127    -0.18800
H507        H  0.36802201  0.53938364  0.99138503     0.10300
H508        H  0.33693638  0.57466441  0.99712620     0.10300
H509        H  0.39998154  0.62842166  0.00837718     0.10000
H510        H  0.43060242  0.59366289  0.00325794     0.11100
H511        H  0.32799277  0.62168892  0.99744806     0.11200
H512        H  0.36972397  0.65135783  0.02759933     0.13100
H513        H  0.36196186  0.69877362  0.01906782     0.09600
H514        H  0.33193608  0.73480676  0.01270087     0.11700
H515        H  0.26815852  0.68062048  0.01148716     0.08300
H516        H  0.29791967  0.64507520  0.01841940     0.11100
C517        C  0.57296276  0.56171762  0.99783657    -0.03500
C518        C  0.59898588  0.55522715  0.00186020    -0.06100
C519        C  0.61804859  0.57428265  0.00059781    -0.21200
C520        C  0.61151148  0.60005848  0.99506996     0.24500
C521        C  0.58535716  0.60676569  0.99220202    -0.18800
C522        C  0.56629944  0.58775178  0.99351982    -0.08700
C523        C  0.63256381  0.61922863  0.99249731    -0.19000
C524        C  0.63016118  0.64180418  0.97972560    -0.23800
C525        C  0.65187550  0.66016721  0.97755860     0.26600
C526        C  0.64684043  0.68680406  0.97832914    -0.20600
C527        C  0.66721404  0.70451940  0.97827736    -0.10200
C528        C  0.69296059  0.69581399  0.97707067    -0.10800
C529        C  0.69784673  0.66913434  0.97494368    -0.03700
C530        C  0.67748984  0.65146603  0.97513051    -0.18800
H531        H  0.60469728  0.53538983  0.00560546     0.10300
H532        H  0.63804887  0.56875506  0.00332070     0.10300
H533        H  0.57938876  0.62657563  0.98901173     0.10000
H534        H  0.54637360  0.59344658  0.99066559     0.11100
H535        H  0.65104972  0.61417595  0.00100112     0.11200
H536        H  0.61186497  0.64756334  0.97136576     0.13100
H537        H  0.62717196  0.69385921  0.97983408     0.09600
H538        H  0.66277272  0.72498191  0.97963644     0.11700
H539        H  0.71741362  0.66182188  0.97355717     0.08300
H540        H  0.68184650  0.63101429  0.97347119     0.11100
C541        C  0.27491338  0.28591565  0.05972909    -0.03500
C542        C  0.26711813  0.31200639  0.06117246    -0.06100
C543        C  0.28489106  0.33108089  0.06822589    -0.21200
C544        C  0.31042846  0.32416020  0.07387559     0.24500
C545        C  0.31644980  0.29788558  0.07767379    -0.18800
C546        C  0.29866274  0.27879794  0.07076507    -0.08700
C547        C  0.33093890  0.34374286  0.06966017    -0.19000
C548        C  0.35196105  0.33777848  0.05529435    -0.23800
C549        C  0.36917730  0.35703536  0.04253485     0.26600
C550        C  0.39274107  0.34837365  0.03212132    -0.20600
C551        C  0.40894138  0.36528740  0.01849277    -0.10200
C552        C  0.40184536  0.39132470  0.01471694    -0.10800
C553        C  0.37794673  0.39985815  0.02463390    -0.03700
C554        C  0.36177676  0.38293996  0.03834726    -0.18800
H555        H  0.24857867  0.31809542  0.05366711     0.10300
H556        H  0.27963427  0.35127270  0.06592644     0.10300
H557        H  0.33574740  0.29209537  0.08325647     0.10000
H558        H  0.30485684  0.25874992  0.07094838     0.11100
H559        H  0.32644280  0.36375814  0.07417476     0.11200
H560        H  0.35567338  0.31758079  0.05062806     0.13100
H561        H  0.39872988  0.32841450  0.03465424     0.09600
H562        H  0.42726853  0.35803385  0.01134870     0.11700
H563        H  0.37193209  0.41982590  0.02234798     0.08300
H564        H  0.34342339  0.39026535  0.04520120     0.11100
C565        C  0.70066582  0.49481520  0.77548065    -0.03500
C566        C  0.68354175  0.47484471  0.76848663    -0.06100
C567        C  0.66131269  0.46982464  0.78356605    -0.21200
C568        C  0.65599119  0.48455204  0.80591771     0.24500
C569        C  0.67226452  0.50555030  0.81172247    -0.18800
C570        C  0.69428246  0.51048405  0.79685369    -0.08700
C571        C  0.63366762  0.47800151  0.82323515    -0.19000
C572        C  0.63503230  0.48170433  0.84913676    -0.23800
C573        C  0.61369478  0.47808661  0.86843188     0.26600
C574        C  0.61954750  0.48197441  0.89471277    -0.20600
C575        C  0.60033718  0.48082337  0.91381174    -0.15600
C576        C  0.57453705  0.47579195  0.90722703    -0.10800
C577        C  0.56860190  0.47141435  0.88093146    -0.03700
C578        C  0.58793840  0.47250215  0.86173166    -0.18800
H579        H  0.68790313  0.46244015  0.75213593     0.10300
H580        H  0.64883159  0.45381652  0.77836149     0.10300
H581        H  0.66818669  0.51813406  0.82800149     0.10000
H582        H  0.70671392  0.52637517  0.80253099     0.11100
H583        H  0.61653700  0.46962509  0.81459446     0.11200
H584        H  0.65335297  0.48817185  0.85703029     0.13100
H585        H  0.63914231  0.48639245  0.90054873     0.09600
H586        H  0.60569233  0.48438246  0.93374203     0.11700
H587        H  0.54893427  0.46733253  0.87512192     0.08300
H588        H  0.58245383  0.46948560  0.84178829     0.11100
C589        C  0.40466155  0.47636439  0.90199673    -0.03500
C590        C  0.41424039  0.48303101  0.87728081    -0.06100
C591        C  0.39815093  0.48314317  0.85569500    -0.21200
C592        C  0.37201720  0.47633508  0.85791757     0.24500
C593        C  0.36216461  0.46980542  0.88261105    -0.18800
C594        C  0.37835101  0.46987900  0.90444718    -0.08700
C595        C  0.35579137  0.47780320  0.83414434    -0.19000
C596        C  0.33306611  0.46539223  0.83091832    -0.23800
C597        C  0.31662416  0.46838318  0.80731950     0.26600
C598        C  0.29694403  0.45018718  0.80248635    -0.20600
C599        C  0.27899579  0.45417851  0.78254387    -0.10200
C600        C  0.28031576  0.47654863  0.76712840    -0.10800
C601        C  0.30066694  0.49408173  0.77109567    -0.03700
C602        C  0.31862672  0.49010005  0.79085435    -0.18800
H603        H  0.43430439  0.48839567  0.87450907     0.10300
H604        H  0.40625555  0.48855319  0.83706657     0.10300
H605        H  0.34195192  0.46511805  0.88525990     0.10000
H606        H  0.37032171  0.46474739  0.92316496     0.11100
H607        H  0.36367358  0.48903612  0.81819809     0.11200
H608        H  0.32621298  0.45234485  0.84595292     0.13100
H609        H  0.29472585  0.43342045  0.81493942     0.09600
H610        H  0.26289761  0.44090968  0.78057308     0.11700
H611        H  0.30150753  0.51196385  0.76009906     0.08300
H612        H  0.33284606  0.50507811  0.79411433     0.11100
C613        C  0.27833558  0.49419258  0.21744999    -0.03500
C614        C  0.30313520  0.50338454  0.22338567    -0.06100
C615        C  0.32400199  0.49850493  0.20654355    -0.21200
C616        C  0.32028648  0.48479250  0.18327775     0.24500
C617        C  0.29584766  0.47385058  0.17857418    -0.18800
C618        C  0.27513155  0.47865282  0.19539219    -0.08700
C619        C  0.34188015  0.48278497  0.16401602    -0.19000
C620        C  0.33789659  0.48042150  0.13821708    -0.23800
C621        C  0.35887669  0.47907578  0.11824147     0.26600
C622        C  0.35288935  0.48476940  0.09230215    -0.20600
C623        C  0.37186913  0.48353886  0.07285915    -0.10200
C624        C  0.39740203  0.47649582  0.07885233    -0.10800
C625        C  0.40327040  0.47028732  0.10473850    -0.03700
C626        C  0.38427502  0.47146184  0.12415789    -0.18800
H627        H  0.30593745  0.51603169  0.23987263     0.10300
H628        H  0.34269873  0.50684666  0.21088507     0.10300
H629        H  0.29238382  0.46230191  0.16146068     0.10000
H630        H  0.25606628  0.47179528  0.19014626     0.11100
H631        H  0.36140993  0.48508938  0.17120216     0.11200
H632        H  0.31821346  0.48068639  0.13105170     0.13100
H633        H  0.33344764  0.49043703  0.08706596     0.09600
H634        H  0.36658821  0.48843734  0.05318543     0.11700
H635        H  0.42260966  0.46437514  0.11004367     0.08300
H636        H  0.38955272  0.46604515  0.14365917     0.11100
C637        C  0.57010874  0.47692118  0.08324463    -0.03500
C638        C  0.56631848  0.49528519  0.10292469    -0.06100
C639        C  0.58414298  0.49791700  0.12301000    -0.21200
C640        C  0.60586239  0.48172452  0.12454524     0.24500
C641        C  0.60949753  0.46278411  0.10517612    -0.18800
C642        C  0.59190693  0.46063846  0.08448893    -0.08700
C643        C  0.62528708  0.48717131  0.14516008    -0.19000
C644        C  0.64059348  0.46929855  0.15649961    -0.23800
C645        C  0.66080904  0.47647902  0.17593892     0.26600
C646        C  0.66828933  0.45874776  0.19527020    -0.20600
C647        C  0.68905195  0.46431192  0.21194598    -0.10200
C648        C  0.70314677  0.48745062  0.20912068    -0.10800
C649        C  0.69501936  0.50551645  0.19045687    -0.03700
C650        C  0.67413160  0.50020225  0.17419693    -0.18800
H651        H  0.54981298  0.50817933  0.10237620     0.10300
H652        H  0.58100213  0.51285472  0.13741783     0.10300
H653        H  0.62631248  0.45031809  0.10550144     0.10000
H654        H  0.59523387  0.44624824  0.06957643     0.11100
H655        H  0.62627021  0.50704875  0.15199451     0.11200
H656        H  0.63808998  0.44895598  0.15171782     0.13100
H657        H  0.65846361  0.44028592  0.19703943     0.09600
H658        H  0.69508894  0.44986490  0.22588146     0.11700
H659        H  0.70561255  0.52343198  0.18767179     0.08300
H660        H  0.66943147  0.51416873  0.15930570     0.11100
C661        C  0.78595641  0.71185174  0.97891687    -0.03500
C662        C  0.80635606  0.72169925  0.99389454    -0.06100
C663        C  0.82966249  0.70770871  0.99611959    -0.21200
C664        C  0.83278518  0.68361663  0.98362357     0.24500
C665        C  0.81295164  0.67482697  0.96737981    -0.18800
C666        C  0.78993568  0.68866244  0.96514659    -0.08700
C667        C  0.85654889  0.66760711  0.98756065    -0.19000
C668        C  0.85548378  0.64137608  0.98801396    -0.23800
C669        C  0.87803449  0.62343291  0.99042833     0.26600
C670        C  0.90364389  0.63098355  0.98508952    -0.20600
C671        C  0.92380469  0.61278125  0.98600360    -0.10200
C672        C  0.91891546  0.58656619  0.99217512    -0.10800
C673        C  0.89331157  0.57914478  0.99754068    -0.03700
C674        C  0.87321820  0.59731015  0.99663902    -0.18800
H675        H  0.80385078  0.73944121  0.00481059     0.10300
H676        H  0.84482699  0.71516386  0.00843298     0.10300
H677        H  0.81503711  0.65698910  0.95654515     0.10000
H678        H  0.77481934  0.68072229  0.95306363     0.11100
H679        H  0.87469622  0.67753603  0.99099775     0.11200
H680        H  0.83660869  0.63221688  0.98694805     0.13100
H681        H  0.90815343  0.65070747  0.97957826     0.09600
H682        H  0.94322086  0.61921890  0.98142910     0.11700
H683        H  0.88871860  0.55922741  0.00234076     0.08300
H684        H  0.85368691  0.59082262  0.00064395     0.11100
C685        C  0.93178176  0.41135645  0.00186174    -0.03500
C686        C  0.94110357  0.38681039  0.00928089    -0.06100
C687        C  0.92412754  0.36600189  0.01327552    -0.21200
C688        C  0.89749063  0.36893837  0.00931170     0.24500
C689        C  0.88804079  0.39340889  0.00193044    -0.18800
C690        C  0.90497365  0.41442456  0.99844423    -0.08700
C691        C  0.87987619  0.34663572  0.01449537    -0.19000
C692        C  0.85878528  0.34156148  0.00007688    -0.23800
C693        C  0.84010125  0.32024432  0.00601903     0.26600
C694        C  0.82502394  0.30968520  0.98599941    -0.20600
C695        C  0.80503367  0.29201924  0.99147022    -0.10200
C696        C  0.79944576  0.28498170  0.01714922    -0.10800
C697        C  0.81496349  0.29490625  0.03707316    -0.03700
C698        C  0.83522130  0.31211849  0.03160205    -0.18800
H699        H  0.96155509  0.38372013  0.01237800     0.10300
H700        H  0.93185943  0.34745306  0.01928990     0.10300
H701        H  0.86750692  0.39644708  0.99940088     0.10000
H702        H  0.89706890  0.43304622  0.99293771     0.11100
H703        H  0.88510620  0.33345612  0.03001266     0.11200
H704        H  0.85514666  0.35335600  0.98303822     0.13100
H705        H  0.82817807  0.31578383  0.96615484     0.09600
H706        H  0.79288599  0.28521571  0.97586060     0.11700
H707        H  0.81058718  0.29025849  0.05708595     0.08300
H708        H  0.84592468  0.32023841  0.04761789     0.11100
C709        C  0.08875884  0.60064985  0.98144524    -0.03500
C710        C  0.07858322  0.62488869  0.98894309    -0.06100
C711        C  0.09373185  0.64734447  0.98833659    -0.21200
C712        C  0.11948943  0.64658649  0.97983753     0.24500
C713        C  0.12989705  0.62243503  0.97226714    -0.18800
C714        C  0.11472279  0.59969928  0.97318867    -0.08700
C715        C  0.13514969  0.67100974  0.98114370    -0.19000
C716        C  0.15597682  0.67606357  0.96605910    -0.23800
C717        C  0.17337974  0.69920341  0.96914099     0.26600
C718        C  0.19192058  0.70435287  0.94977747    -0.20600
C719        C  0.21201014  0.72212886  0.95401659    -0.10200
C720        C  0.21395404  0.73542118  0.97764563    -0.10800
C721        C  0.19433914  0.73193161  0.99621025    -0.03700
C722        C  0.17421097  0.71413146  0.99203290    -0.18800
H723        H  0.05880289  0.62657714  0.99567890     0.10300
H724        H  0.08521879  0.66548220  0.99460568     0.10300
H725        H  0.14990020  0.62092164  0.96626594     0.10000
H726        H  0.12327410  0.58144549  0.96738223     0.11100
H727        H  0.12866533  0.68557021  0.99483967     0.11200
H728        H  0.16097360  0.66229156  0.95095190     0.13100
H729        H  0.19190498  0.69329574  0.93195003     0.09600
H730        H  0.22732481  0.72376820  0.93972441     0.11700
H731        H  0.19589828  0.74118201  0.01496731     0.08300
H732        H  0.16070804  0.71076820  0.00770420     0.11100
C733        C  0.10269497  0.42203035  0.98437723    -0.03500
C734        C  0.12896271  0.42836023  0.98119674    -0.06100
C735        C  0.14781875  0.40877938  0.97966239    -0.21200
C736        C  0.14098088  0.38236757  0.98105379     0.24500
C737        C  0.11476562  0.37608665  0.98474643    -0.18800
C738        C  0.09599040  0.39557686  0.98635665    -0.08700
C739        C  0.16180924  0.36216262  0.97996846    -0.19000
C740        C  0.15778796  0.33667535  0.97490470    -0.23800
C741        C  0.17849676  0.31645983  0.97663303     0.26600
C742        C  0.17176700  0.29091400  0.98359859    -0.20600
C743        C  0.19091882  0.27244759  0.98928557    -0.10200
C744        C  0.21719395  0.27899087  0.98745438    -0.10800
C745        C  0.22384386  0.30377291  0.97817126    -0.03700
C746        C  0.20479486  0.32227786  0.97276177    -0.18800
H747        H  0.13496816  0.44841934  0.97976918     0.10300
H748        H  0.16788003  0.41430998  0.97721529     0.10300
H749        H  0.10855487  0.35619630  0.98690868     0.10000
H750        H  0.07606602  0.38976221  0.98919326     0.11100
H751        H  0.18127995  0.36871675  0.98411697     0.11200
H752        H  0.13838480  0.32986915  0.97093970     0.13100
H753        H  0.15165993  0.28575308  0.98645867     0.09600
H754        H  0.18520725  0.25384984  0.99720162     0.11700
H755        H  0.24396243  0.30954824  0.97719253     0.08300
H756        H  0.21082792  0.34138243  0.96654513     0.11100
C757        C  0.91831669  0.49728104  0.91026262    -0.03500
C758        C  0.89262181  0.49641828  0.91920365    -0.06100
C759        C  0.87215160  0.49803362  0.90179341    -0.21200
C760        C  0.87693802  0.50086506  0.87521463     0.24500
C761        C  0.90254253  0.50019346  0.86605430    -0.18800
C762        C  0.92302738  0.49847005  0.88342695    -0.08700
C763        C  0.85478597  0.50472125  0.85771339    -0.19000
C764        C  0.85650314  0.51824111  0.83549089    -0.23800
C765        C  0.83412192  0.52134196  0.81819639     0.26600
C766        C  0.83811141  0.52047253  0.79139393    -0.20600
C767        C  0.81706396  0.51904389  0.77471516    -0.10200
C768        C  0.79168245  0.51865654  0.78465557    -0.10800
C769        C  0.78775464  0.52239581  0.81131502    -0.03700
C770        C  0.80883980  0.52370187  0.82798647    -0.18800
H771        H  0.88827286  0.49518729  0.93970200     0.10300
H772        H  0.85252205  0.49801256  0.90919581     0.10300
H773        H  0.90685494  0.50114528  0.84554900     0.10000
H774        H  0.94256274  0.49866013  0.87581015     0.11100
H775        H  0.83625168  0.49686839  0.86383773     0.11200
H776        H  0.87493720  0.52600761  0.82903010     0.13100
H777        H  0.85749601  0.51923353  0.78345934     0.09600
H778        H  0.82077095  0.51673356  0.75418483     0.11700
H779        H  0.76845206  0.52280166  0.81950036     0.08300
H780        H  0.80531700  0.52562390  0.84857914     0.11100
C781        C  0.08784224  0.51744844  0.89454704    -0.03500
C782        C  0.07948482  0.51239113  0.86921409    -0.06100
C783        C  0.09414062  0.52056559  0.84804327    -0.21200
C784        C  0.11737698  0.53405484  0.85165820     0.24500
C785        C  0.12609488  0.53859782  0.87704327    -0.18800
C786        C  0.11144363  0.53032749  0.89826538    -0.08700
C787        C  0.13288062  0.54060288  0.82840171    -0.19000
C788        C  0.15382306  0.55609095  0.82832606    -0.23800
C789        C  0.17259142  0.55463328  0.80674743     0.26600
C790        C  0.19887070  0.55265228  0.81272968    -0.20600
C791        C  0.21617554  0.54265775  0.79451635    -0.10200
C792        C  0.20731427  0.53457433  0.77009145    -0.10800
C793        C  0.18178624  0.54030301  0.76294065    -0.03700
C794        C  0.16453193  0.55036282  0.78114998    -0.18800
H795        H  0.06142647  0.50238832  0.86571203     0.10300
H796        H  0.08724900  0.51635271  0.82871322     0.10300
H797        H  0.14428936  0.54811750  0.88079319     0.10000
H798        H  0.11831217  0.53459779  0.91758152     0.11100
H799        H  0.12797635  0.53012657  0.81085361     0.11200
H800        H  0.15959797  0.56633713  0.84567794     0.13100
H801        H  0.20554353  0.55626681  0.83225673     0.09600
H802        H  0.23588589  0.53904590  0.80046901     0.11700
H803        H  0.17450510  0.53493947  0.74406068     0.08300
H804        H  0.14447543  0.55279051  0.77578658     0.11100
C805        C  0.20750254  0.55244005  0.20004482    -0.03500
C806        C  0.18153256  0.55929633  0.20422946    -0.06100
C807        C  0.16644866  0.56799692  0.18362986    -0.21200
C808        C  0.17705530  0.56958855  0.15865121     0.24500
C809        C  0.20371456  0.56600038  0.15516342    -0.18800
C810        C  0.21883403  0.55748580  0.17573344    -0.08700
C811        C  0.15927085  0.56989148  0.13643399    -0.19000
C812        C  0.16264216  0.55306422  0.11678338    -0.23800
C813        C  0.14167003  0.54489300  0.09922411     0.26600
C814        C  0.14820080  0.53282833  0.07575033    -0.20600
C815        C  0.12896980  0.52303653  0.05958517    -0.10200
C816        C  0.10283982  0.52471198  0.06687618    -0.10800
C817        C  0.09634823  0.53630674  0.09064396    -0.03700
C818        C  0.11552470  0.54628288  0.10665967    -0.18800
H819        H  0.17232141  0.55601685  0.22282279     0.10300
H820        H  0.14593974  0.57099589  0.18671124     0.10300
H821        H  0.21246983  0.56793901  0.13616389     0.10000
H822        H  0.23897561  0.55307431  0.17204740     0.11100
H823        H  0.14113536  0.58020093  0.13868225     0.11200
H824        H  0.18083402  0.54269919  0.11495034     0.13100
H825        H  0.16825375  0.53099178  0.06990681     0.09600
H826        H  0.13454770  0.51418831  0.04138516     0.11700
H827        H  0.07636615  0.53806629  0.09674027     0.08300
H828        H  0.10971900  0.55440810  0.12508320     0.11100
C829        C  0.93283350  0.50494678  0.08340049    -0.03500
C830        C  0.94052552  0.49835859  0.10864815    -0.06100
C831        C  0.92281395  0.49934565  0.12918701    -0.21200
C832        C  0.89729548  0.50743671  0.12496091     0.24500
C833        C  0.88955073  0.51358203  0.09960587    -0.18800
C834        C  0.90713479  0.51242760  0.07911827    -0.08700
C835        C  0.87873910  0.50790890  0.14694162    -0.19000
C836        C  0.85761139  0.52314375  0.14707317    -0.23800
C837        C  0.83648229  0.52038434  0.16626532     0.26600
C838        C  0.81108329  0.52518066  0.15820725    -0.20600
C839        C  0.79023232  0.52021863  0.17474472    -0.10200
C840        C  0.79446556  0.51085577  0.19989517    -0.10800
C841        C  0.82004832  0.50748626  0.20845487    -0.03700
C842        C  0.84087377  0.51214028  0.19178753    -0.18800
H843        H  0.96014549  0.49220695  0.11248371     0.10300
H844        H  0.92909501  0.49398383  0.14844395     0.10300
H845        H  0.86978896  0.51876175  0.09529757     0.10000
H846        H  0.90056957  0.51750343  0.05988522     0.11100
H847        H  0.88216001  0.49460785  0.16286198     0.11200
H848        H  0.85439582  0.53657710  0.13123951     0.13100
H849        H  0.80730163  0.53179151  0.13866991     0.09600
H850        H  0.77080828  0.52323036  0.16764584     0.11700
H851        H  0.82403018  0.50050256  0.22781106     0.08300
H852        H  0.86028841  0.50904147  0.19884124     0.11100
C853        C  0.49554452  0.26797931  0.76851511    -0.03500
C854        C  0.47377530  0.26343587  0.78422509    -0.06100
C855        C  0.46744069  0.28067341  0.80437814    -0.21200
C856        C  0.48277060  0.30269452  0.80921322     0.24500
C857        C  0.50387446  0.30764794  0.79255784    -0.18800
C858        C  0.51001792  0.29058614  0.77248608    -0.08700
C859        C  0.47797845  0.31861929  0.83301917    -0.19000
C860        C  0.48739518  0.34285814  0.83586414    -0.23800
C861        C  0.48606536  0.35898053  0.85985514     0.26600
C862        C  0.49522214  0.38450369  0.85807352    -0.20600
C863        C  0.49567481  0.40061804  0.87967175    -0.10200
C864        C  0.48700742  0.39179275  0.90398642    -0.10800
C865        C  0.47794091  0.36615027  0.90608329    -0.03700
C866        C  0.47742977  0.34985004  0.88420175    -0.18800
H867        H  0.46297532  0.24555584  0.78229988     0.10300
H868        H  0.45128641  0.27612199  0.81700835     0.10300
H869        H  0.51696563  0.32360512  0.79588276     0.10000
H870        H  0.52754875  0.29389673  0.76139239     0.11100
H871        H  0.46674990  0.30987440  0.84850936     0.11200
H872        H  0.49684605  0.35190240  0.81939650     0.13100
H873        H  0.50224326  0.39211461  0.83977914     0.09600
H874        H  0.50301435  0.42014049  0.87722618     0.11700
H875        H  0.47102684  0.35880464  0.92450793     0.08300
H876        H  0.47053819  0.33021590  0.88659598     0.11100
C877        C  0.48646301  0.56378287  0.90661414    -0.03500
C878        C  0.48156510  0.58977574  0.91323993    -0.06100
C879        C  0.47971147  0.60896233  0.89408674    -0.21200
C880        C  0.48293637  0.60294309  0.86769481     0.24500
C881        C  0.48821367  0.57702231  0.86096509    -0.18800
C882        C  0.48990695  0.55772780  0.88016970    -0.08700
C883        C  0.47911403  0.62408233  0.84812773    -0.19000
C884        C  0.48625361  0.62315948  0.82284209    -0.23800
C885        C  0.48144221  0.64521093  0.80457032     0.26600
C886        C  0.49873934  0.65036034  0.78399431    -0.20600
C887        C  0.49582799  0.67263145  0.76841753    -0.10200
C888        C  0.47538444  0.68991882  0.77308615    -0.10800
C889        C  0.45696944  0.68348293  0.79218552    -0.03700
C890        C  0.45987881  0.66147265  0.80764272    -0.18800
H891        H  0.47868283  0.59530586  0.93327299     0.10300
H892        H  0.47548600  0.62866870  0.89997103     0.10300
H893        H  0.49039470  0.57135957  0.84091850     0.10000
H894        H  0.49367996  0.53796288  0.87422838     0.11100
H895        H  0.47042781  0.64184036  0.85534279     0.11200
H896        H  0.49704341  0.60665702  0.81559410     0.13100
H897        H  0.51526247  0.63786879  0.78083412     0.09600
H898        H  0.51038820  0.67716841  0.75397446     0.11700
H899        H  0.44079142  0.69627029  0.79601423     0.08300
H900        H  0.44545529  0.65757929  0.82239172     0.11100
C901        C  0.46957711  0.69928657  0.20211551    -0.03500
C902        C  0.49370678  0.68692132  0.20231525    -0.06100
C903        C  0.49827755  0.66543146  0.18624525    -0.21200
C904        C  0.47865628  0.65562705  0.17020466     0.24500
C905        C  0.45414953  0.66736588  0.17105443    -0.18800
C906        C  0.44978430  0.68908417  0.18664157    -0.08700
C907        C  0.48481536  0.63502596  0.15089975    -0.19000
C908        C  0.46720922  0.61781738  0.14236157    -0.23800
C909        C  0.47291993  0.59847271  0.12178868     0.26600
C910        C  0.46335206  0.57318714  0.12439167    -0.20600
C911        C  0.46721408  0.55489681  0.10475687    -0.10200
C912        C  0.48004045  0.56167163  0.08161025    -0.10800
C913        C  0.48934594  0.58717102  0.07882527    -0.03700
C914        C  0.48609356  0.60532045  0.09886922    -0.18800
H915        H  0.50943836  0.69485140  0.21358356     0.10300
H916        H  0.51739085  0.65689773  0.18576431     0.10300
H917        H  0.43875201  0.66080204  0.15855298     0.10000
H918        H  0.43116951  0.69864832  0.18580440     0.11100
H919        H  0.50451387  0.63387258  0.14360332     0.11200
H920        H  0.44821891  0.61711672  0.15139454     0.13100
H921        H  0.45289193  0.56755072  0.14173179     0.09600
H922        H  0.45955531  0.53553463  0.10746040     0.11700
H923        H  0.49921116  0.59303452  0.06122512     0.08300
H924        H  0.49319251  0.62489123  0.09616585     0.11100
C925        C  0.48440325  0.25227356  0.20321136    -0.03500
C926        C  0.45999326  0.25295769  0.19141722    -0.06100
C927        C  0.45438233  0.27198769  0.17271372    -0.21200
C928        C  0.47287007  0.29089761  0.16594388     0.24500
C929        C  0.49683606  0.29063931  0.17869888    -0.18800
C930        C  0.50245927  0.27163307  0.19703269    -0.08700
C931        C  0.46791401  0.30948436  0.14428529    -0.19000
C932        C  0.47926196  0.33305346  0.14341650    -0.23800
C933        C  0.47810065  0.35181885  0.12142852     0.26600
C934        C  0.48644280  0.37727779  0.12606978    -0.20600
C935        C  0.48764076  0.39550283  0.10610637    -0.10200
C936        C  0.48082007  0.38877868  0.08067099    -0.10800
C937        C  0.47244380  0.36324967  0.07582205    -0.03700
C938        C  0.47101394  0.34493411  0.09600945    -0.18800
H939        H  0.44595906  0.23786653  0.19538355     0.10300
H940        H  0.43586590  0.27154061  0.16303588     0.10300
H941        H  0.51196166  0.30420792  0.17356307     0.10000
H942        H  0.52157634  0.27127119  0.20549609     0.11100
H943        H  0.45490610  0.30354172  0.12897408     0.11200
H944        H  0.49023494  0.33931353  0.16015834     0.13100
H945        H  0.49231716  0.38311945  0.14531612     0.09600
H946        H  0.49435229  0.41486422  0.11060047     0.11700
H947        H  0.46695627  0.35745692  0.05645500     0.08300
H948        H  0.46497881  0.32538949  0.09148734     0.11100
C949        C  0.73569912  0.21179677  0.01435536    -0.03500
C950        C  0.73161504  0.20681747  0.98796986    -0.06100
C951        C  0.71459403  0.18700806  0.98027969    -0.21200
C952        C  0.70159540  0.17164409  0.99878439     0.24500
C953        C  0.70726348  0.17557597  0.02513723    -0.18800
C954        C  0.72400468  0.19542805  0.03274954    -0.08700
C955        C  0.68030802  0.15385226  0.99040255    -0.19000
C956        C  0.67185838  0.13368215  0.00480974    -0.23800
C957        C  0.64953979  0.11683195  0.99778973     0.26600
C958        C  0.65028036  0.09065572  0.00501358    -0.20600
C959        C  0.62917386  0.07437751  0.00061082    -0.10200
C960        C  0.60627610  0.08397706  0.98967152    -0.10800
C961        C  0.60532980  0.11030601  0.98248631    -0.03700
C962        C  0.62689815  0.12654059  0.98622286    -0.18800
H963        H  0.73978321  0.21959727  0.97342671     0.10300
H964        H  0.71058654  0.18452432  0.95986321     0.10300
H965        H  0.69739468  0.16473214  0.04014024     0.10000
H966        H  0.72632123  0.19928177  0.05323710     0.11100
H967        H  0.67128812  0.15753373  0.97180556     0.11200
H968        H  0.68235306  0.12837653  0.02216441     0.13100
H969        H  0.66731111  0.08274148  0.01422065     0.09600
H970        H  0.63056816  0.05430216  0.00646125     0.11700
H971        H  0.58795155  0.11831498  0.97405396     0.08300
H972        H  0.62553200  0.14680179  0.98093874     0.11100
C973        C  0.41625972  0.92889015  0.99050563    -0.03500
C974        C  0.39417877  0.93688138  0.00442786    -0.06100
C975        C  0.37262059  0.92059531  0.00687372    -0.21200
C976        C  0.37220255  0.89619879  0.99487870     0.24500
C977        C  0.39413098  0.88824506  0.98068250    -0.18800
C978        C  0.41600498  0.90432745  0.97873060    -0.08700
C979        C  0.34941978  0.87885419  0.99901995    -0.19000
C980        C  0.34086106  0.86189880  0.98109257    -0.23800
C981        C  0.31918220  0.84321916  0.98566927     0.26600
C982        C  0.30539268  0.83342524  0.96437481    -0.20600
C983        C  0.28757510  0.81308140  0.96745357    -0.10200
C984        C  0.28359467  0.80175058  0.99184281    -0.10800
C985        C  0.29646541  0.81228055  0.01334914    -0.03700
C986        C  0.31387379  0.83292293  0.01038541    -0.18800
H987        H  0.39373696  0.95561734  0.01388142     0.10300
H988        H  0.35614260  0.92712218  0.01812867     0.10300
H989        H  0.39468031  0.86932114  0.97166593     0.10000
H990        H  0.43264303  0.89764023  0.96783620     0.11100
H991        H  0.33888501  0.88082446  0.01715193     0.11200
H992        H  0.34995649  0.86178638  0.96208583     0.13100
H993        H  0.30922009  0.84082270  0.94509751     0.09600
H994        H  0.27852338  0.80484236  0.95047435     0.11700
H995        H  0.29422932  0.80343293  0.03226814     0.08300
H996        H  0.32443277  0.83948157  0.02719144     0.11100
C997        C  0.72179406  0.78449698  0.98791185    -0.03500
C998        C  0.72766347  0.80304208  0.96887682    -0.06100
C999        C  0.71303197  0.82593984  0.96715895    -0.21200
C1000       C  0.69222709  0.83041892  0.98426070     0.24500
C1001       C  0.68809720  0.81287062  0.00471198    -0.18800
C1002       C  0.70255640  0.79012489  0.00634057    -0.08700
C1003       C  0.67450805  0.85280756  0.97990257    -0.19000
C1004       C  0.64925319  0.85201398  0.98678572    -0.23800
C1005       C  0.63015491  0.87327322  0.98272377     0.26600
C1006       C  0.60375916  0.86771215  0.98634835    -0.20600
C1007       C  0.58502647  0.88715705  0.98429085    -0.10200
C1008       C  0.59225482  0.91279973  0.97877175    -0.10800
C1009       C  0.61865152  0.91830626  0.97458303    -0.03700
C1010       C  0.63738068  0.89884140  0.97658366    -0.18800
H1011       H  0.74202334  0.79889262  0.95412666     0.10300
H1012       H  0.71691223  0.83936033  0.95147325     0.10300
H1013       H  0.67309721  0.81614954  0.01900771     0.10000
H1014       H  0.69754461  0.77600681  0.02108723     0.11100
H1015       H  0.68209420  0.86931794  0.96932066     0.11200
H1016       H  0.64166371  0.83430100  0.99525973     0.13100
H1017       H  0.59758330  0.84822793  0.99118553     0.09600
H1018       H  0.56496685  0.88221375  0.98777377     0.11700
H1019       H  0.62498802  0.93785579  0.97026393     0.08300
H1020       H  0.65742664  0.90418921  0.97402429     0.11100
C1021       C  0.43070960  0.09883119  0.98772698    -0.03500
C1022       C  0.43604075  0.12435433  0.99558123    -0.06100
C1023       C  0.41617132  0.14296011  0.99687617    -0.21200
C1024       C  0.39057604  0.13674136  0.98991880     0.24500
C1025       C  0.38549599  0.11149606  0.98109102    -0.18800
C1026       C  0.40522519  0.09288013  0.98005934    -0.08700
C1027       C  0.36946562  0.15619662  0.99447226    -0.19000
C1028       C  0.34576529  0.15574985  0.98327289    -0.23800
C1029       C  0.32468391  0.17441068  0.99052341     0.26600
C1030       C  0.30617435  0.18252146  0.97223042    -0.20600
C1031       C  0.28700692  0.20093001  0.97883139    -0.10200
C1032       C  0.28569696  0.21119353  0.00406230    -0.10800
C1033       C  0.30323666  0.20155844  0.02260004    -0.03700
C1034       C  0.32238933  0.18366567  0.01595890    -0.18800
H1035       H  0.45534275  0.12972300  0.00156252     0.10300
H1036       H  0.42073232  0.16221457  0.00385020     0.10300
H1037       H  0.36611218  0.10565808  0.97595046     0.10000
H1038       H  0.40030956  0.07352488  0.97363504     0.11100
H1039       H  0.37382016  0.17180032  0.00787170     0.11200
H1040       H  0.34176975  0.14185256  0.96804816     0.13100
H1041       H  0.30707890  0.17524702  0.95257915     0.09600
H1042       H  0.27385569  0.20769441  0.96405632     0.11700
H1043       H  0.30269019  0.20835216  0.04243182     0.08300
H1044       H  0.33542071  0.17707284  0.03091387     0.11100
C1045       C  0.56208273  0.20311815  0.77367321    -0.03500
C1046       C  0.57004311  0.17781867  0.76746862    -0.06100
C1047       C  0.57826654  0.16109593  0.78704945    -0.21200
C1048       C  0.57850582  0.16957455  0.81283015     0.24500
C1049       C  0.57528294  0.19607402  0.81810778    -0.18800
C1050       C  0.56712168  0.21277226  0.79861059    -0.08700
C1051       C  0.57684344  0.15000295  0.83367209    -0.19000
C1052       C  0.56055380  0.15348053  0.85379584    -0.23800
C1053       C  0.55200018  0.13257616  0.87140359     0.26600
C1054       C  0.54136572  0.13948828  0.89544007    -0.20600
C1055       C  0.53118731  0.12062014  0.91189130    -0.10200
C1056       C  0.53105399  0.09445443  0.90439073    -0.10800
C1057       C  0.54147877  0.08752645  0.88020472    -0.03700
C1058       C  0.55182915  0.10640373  0.86381929    -0.18800
H1059       H  0.56714360  0.17002754  0.74823199     0.10300
H1060       H  0.58144591  0.14085287  0.78248265     0.10300
H1061       H  0.57672519  0.20341312  0.83769084     0.10000
H1062       H  0.56212302  0.23248057  0.80382266     0.11100
H1063       H  0.58576951  0.13126949  0.83035051     0.11200
H1064       H  0.55138265  0.17220192  0.85662415     0.13100
H1065       H  0.54092448  0.15958678  0.90150095     0.09600
H1066       H  0.52345908  0.12654235  0.93050081     0.11700
H1067       H  0.54197987  0.06746345  0.87405579     0.08300
H1068       H  0.55903504  0.10043066  0.84506295     0.11100
C1069       C  0.49546432  0.92351896  0.89570041    -0.03500
C1070       C  0.48852985  0.93124628  0.87055042    -0.06100
C1071       C  0.48131448  0.91277684  0.85213459    -0.21200
C1072       C  0.48067562  0.88638434  0.85862312     0.24500
C1073       C  0.48863204  0.87861548  0.88341995    -0.18800
C1074       C  0.49579943  0.89696616  0.90175620    -0.08700
C1075       C  0.47305382  0.86713956  0.83888201    -0.19000
C1076       C  0.46279252  0.84400944  0.84525324    -0.23800
C1077       C  0.46028447  0.82269368  0.82641467     0.26600
C1078       C  0.46429465  0.79726066  0.83504883    -0.20600
C1079       C  0.46573437  0.77690083  0.81736759    -0.10200
C1080       C  0.46300610  0.78168555  0.79073860    -0.10800
C1081       C  0.45718118  0.80690387  0.78230505    -0.03700
C1082       C  0.45574565  0.82725872  0.80000971    -0.18800
H1083       H  0.48814929  0.95155283  0.86525071     0.10300
H1084       H  0.47578260  0.91912783  0.83294306     0.10300
H1085       H  0.48969651  0.85835292  0.88870768     0.10000
H1086       H  0.50146669  0.89027022  0.92078264     0.11100
H1087       H  0.47710504  0.87181914  0.81876532     0.11200
H1088       H  0.45863536  0.83951701  0.86539071     0.13100
H1089       H  0.46762405  0.79332428  0.85537817     0.09600
H1090       H  0.47009519  0.75764669  0.82447317     0.11700
H1091       H  0.45439407  0.81104453  0.76194361     0.08300
H1092       H  0.45163267  0.84655926  0.79292997     0.11100
C1093       C  0.45066437  0.79044836  0.18825835    -0.03500
C1094       C  0.44872196  0.81618272  0.19700632    -0.06100
C1095       C  0.45086807  0.83674777  0.17951830    -0.21200
C1096       C  0.45525967  0.83189328  0.15316039     0.24500
C1097       C  0.45467376  0.80623521  0.14410548    -0.18800
C1098       C  0.45233401  0.78571184  0.16149867    -0.08700
C1099       C  0.46175655  0.85379153  0.13586610    -0.19000
C1100       C  0.47823426  0.85114439  0.11580238    -0.23800
C1101       C  0.48633328  0.87299396  0.09913209     0.26600
C1102       C  0.49394795  0.86774787  0.07360687    -0.20600
C1103       C  0.50097615  0.88789449  0.05700945    -0.10200
C1104       C  0.50084089  0.91372240  0.06575692    -0.10800
C1105       C  0.49432122  0.91884157  0.09167882    -0.03700
C1106       C  0.48715753  0.89866373  0.10824567    -0.18800
H1107       H  0.44699032  0.82047388  0.21746859     0.10300
H1108       H  0.45067962  0.85643904  0.18679449     0.10300
H1109       H  0.45678423  0.80190828  0.12369834     0.10000
H1110       H  0.45339707  0.76613478  0.15402518     0.11100
H1111       H  0.45401536  0.87270745  0.14078591     0.11200
H1112       H  0.48606642  0.83218728  0.11112123     0.13100
H1113       H  0.49386114  0.84806045  0.06630548     0.09600
H1114       H  0.50610284  0.88323421  0.03718960     0.11700
H1115       H  0.49413069  0.93849546  0.09902420     0.08300
H1116       H  0.48240160  0.90327160  0.12813524     0.11100
C1117       C  0.54808284  0.18352601  0.20890010    -0.03500
C1118       C  0.55382553  0.15776154  0.21569871    -0.06100
C1119       C  0.56761352  0.14199053  0.19856877    -0.21200
C1120       C  0.57563319  0.15181738  0.17454264     0.24500
C1121       C  0.57427574  0.17868126  0.17012368    -0.18800
C1122       C  0.56039849  0.19443812  0.18715013    -0.08700
C1123       C  0.57881625  0.13330161  0.15287388    -0.19000
C1124       C  0.56775158  0.13845369  0.12988634    -0.23800
C1125       C  0.56000837  0.11870920  0.11063165     0.26600
C1126       C  0.55205503  0.12750885  0.08625693    -0.20600
C1127       C  0.54134926  0.11048949  0.06836384    -0.10200
C1128       C  0.53821973  0.08413888  0.07443455    -0.10800
C1129       C  0.54628512  0.07517213  0.09884409    -0.03700
C1130       C  0.55703525  0.09228885  0.11682447    -0.18800
H1131       H  0.54532816  0.14896263  0.23277994     0.10300
H1132       H  0.56908145  0.12145048  0.20268537     0.10300
H1133       H  0.58153274  0.18702605  0.15226313     0.10000
H1134       H  0.55716036  0.21447850  0.18182751     0.11100
H1135       H  0.58524231  0.11381945  0.15739321     0.11200
H1136       H  0.56102208  0.15799239  0.12596460     0.13100
H1137       H  0.55374596  0.14781621  0.08115110     0.09600
H1138       H  0.53551420  0.11807744  0.04973134     0.11700
H1139       H  0.54435295  0.05492619  0.10407126     0.08300
H1140       H  0.56216174  0.08481802  0.13567283     0.11100
C1141       C  0.29151927  0.98496301  0.19553820    -0.03500
C1142       C  0.28927124  0.00975487  0.18437901    -0.06100
C1143       C  0.30631914  0.01755413  0.16437951    -0.21200
C1144       C  0.32614589  0.00092635  0.15563895     0.24500
C1145       C  0.32734959  0.97580249  0.16588547    -0.18800
C1146       C  0.31027335  0.96793310  0.18529219    -0.08700
C1147       C  0.34520399  0.00936145  0.13545874    -0.19000
C1148       C  0.37017345  0.00152979  0.13602124    -0.23800
C1149       C  0.38981796  0.00656316  0.11530631     0.26600
C1150       C  0.41619366  0.00466561  0.12148657    -0.20600
C1151       C  0.43530088  0.00632748  0.10219630    -0.10200
C1152       C  0.42852340  0.00959563  0.07605274    -0.10800
C1153       C  0.40208586  0.01208081  0.06994557    -0.03700
C1154       C  0.38298821  0.01058936  0.08929198    -0.18800
H1155       H  0.27510430  0.02336722  0.19170575     0.10300
H1156       H  0.30463940  0.03689190  0.15639973     0.10300
H1157       H  0.34160506  0.96208672  0.15892292     0.10000
H1158       H  0.31240160  0.94846621  0.19284151     0.11100
H1159       H  0.33866388  0.02234264  0.12030316     0.11200
H1160       H  0.37675674  0.99063153  0.15275455     0.13100
H1161       H  0.42205007  0.00138035  0.14133359     0.09600
H1162       H  0.45536029  0.00437068  0.10773704     0.11700
H1163       H  0.39601414  0.01453313  0.05005634     0.08300
H1164       H  0.36290638  0.01153727  0.08364056     0.11100
C1165       C  0.59527142  0.99756749  0.89404258    -0.03500
C1166       C  0.58781379  0.99566330  0.86794096    -0.06100
C1167       C  0.60640017  0.99358664  0.84815112    -0.21200
C1168       C  0.63300031  0.99351772  0.85375938     0.24500
C1169       C  0.64045928  0.99489747  0.87993035    -0.18800
C1170       C  0.62187832  0.99693914  0.89971959    -0.08700
C1171       C  0.65204043  0.99196248  0.83176174    -0.19000
C1172       C  0.67761491  0.99735442  0.83366642    -0.23800
C1173       C  0.69571094  0.99831863  0.81093024     0.26600
C1174       C  0.71769905  0.01440388  0.81204213    -0.20600
C1175       C  0.73313604  0.01866765  0.78995956    -0.10200
C1176       C  0.72712784  0.00651685  0.76646515    -0.10800
C1177       C  0.70661013  0.98863160  0.76599603    -0.03700
C1178       C  0.69110743  0.98448890  0.78793204    -0.18800
H1179       H  0.56757011  0.99582284  0.86273128     0.10300
H1180       H  0.59991521  0.99231142  0.82827546     0.10300
H1181       H  0.66056168  0.99420863  0.88542227     0.10000
H1182       H  0.62846232  0.99809952  0.91955777     0.11100
H1183       H  0.64414222  0.98774170  0.81279406     0.11200
H1184       H  0.68538411  0.00357566  0.85208756     0.13100
H1185       H  0.72194870  0.02507176  0.82957227     0.09600
H1186       H  0.74832538  0.03309901  0.79068007     0.11700
H1187       H  0.70128890  0.97937930  0.74795418     0.08300
H1188       H  0.67501211  0.97119519  0.78644741     0.11100
C1189       C  0.42059484  0.01600869  0.90363408    -0.03500
C1190       C  0.39526415  0.01282054  0.91317402    -0.06100
C1191       C  0.37411286  0.01226549  0.89648002    -0.21200
C1192       C  0.37730036  0.01511348  0.86963020     0.24500
C1193       C  0.40254520  0.01905180  0.85986576    -0.18800
C1194       C  0.42394901  0.01944205  0.87671326    -0.08700
C1195       C  0.35378221  0.01201041  0.85304747    -0.19000
C1196       C  0.35185083  0.01876318  0.82784162    -0.23800
C1197       C  0.32819640  0.01381913  0.81180554     0.26600
C1198       C  0.32513475  0.02726493  0.78829616    -0.20600
C1199       C  0.30519758  0.02080877  0.77111808    -0.10200
C1200       C  0.28791710  0.00066720  0.77699625    -0.10800
C1201       C  0.29008265  0.98799820  0.80092884    -0.03700
C1202       C  0.30986483  0.99453294  0.81821972    -0.18800
H1203       H  0.39166973  0.01010088  0.93367216     0.10300
H1204       H  0.35504566  0.00916380  0.90467886     0.10300
H1205       H  0.40599804  0.02103188  0.83928791     0.10000
H1206       H  0.44312505  0.02200368  0.86861730     0.11100
H1207       H  0.33684393  0.00410630  0.86265147     0.11200
H1208       H  0.36799005  0.02847842  0.81848866     0.13100
H1209       H  0.33892643  0.04204909  0.78265065     0.09600
H1210       H  0.30450212  0.03019228  0.75235705     0.11700
H1211       H  0.27757821  0.97173984  0.80544241     0.08300
H1212       H  0.31162509  0.98312306  0.83567680     0.11100
C1213       C  0.47239314  0.05991247  0.40218558    -0.03500
C1214       C  0.46987799  0.08601068  0.40982698    -0.06100
C1215       C  0.46706145  0.10567303  0.39150722    -0.21200
C1216       C  0.46635046  0.09993436  0.36502097     0.24500
C1217       C  0.46856991  0.07386420  0.35716275    -0.18800
C1218       C  0.47157557  0.05405486  0.37558932    -0.08700
C1219       C  0.46559374  0.12193202  0.34639490    -0.19000
C1220       C  0.45637000  0.12021456  0.32209420    -0.23800
C1221       C  0.45901056  0.14142881  0.30257690     0.26600
C1222       C  0.45830884  0.13481163  0.27622746    -0.20600
C1223       C  0.46514785  0.15293881  0.25726737    -0.10200
C1224       C  0.47225248  0.17822804  0.26421883    -0.10800
C1225       C  0.47078378  0.18565432  0.29026716    -0.03700
C1226       C  0.46406494  0.16746251  0.30933792    -0.18800
H1227       H  0.47039831  0.09144307  0.43007140     0.10300
H1228       H  0.46563705  0.12556430  0.39808609     0.10300
H1229       H  0.46887453  0.06877178  0.33684398     0.10000
H1230       H  0.47364249  0.03424724  0.36898615     0.11100
H1231       H  0.47360968  0.14010000  0.35316873     0.11200
H1232       H  0.44831438  0.10192500  0.31557295     0.13100
H1233       H  0.45418564  0.11508316  0.27036939     0.09600
H1234       H  0.46658192  0.14673598  0.23726648     0.11700
H1235       H  0.47661120  0.20496516  0.29604421     0.08300
H1236       H  0.46382980  0.17375167  0.32929371     0.11100
C1237       C  0.47500322  0.76269867  0.27470697    -0.03500
C1238       C  0.50085482  0.76551891  0.28221927    -0.06100
C1239       C  0.50711472  0.78035809  0.30408108    -0.21200
C1240       C  0.48763638  0.79237329  0.31889989     0.24500
C1241       C  0.46164111  0.78788928  0.31225554    -0.18800
C1242       C  0.45546902  0.77336670  0.29029077    -0.08700
C1243       C  0.49494048  0.81198129  0.33882161    -0.19000
C1244       C  0.47906957  0.81926314  0.35826115    -0.23800
C1245       C  0.48455942  0.84105523  0.37630070     0.26600
C1246       C  0.47326075  0.84049385  0.40102308    -0.20600
C1247       C  0.47594594  0.86143861  0.41791068    -0.10200
C1248       C  0.48942627  0.88384696  0.41024988    -0.10800
C1249       C  0.50082956  0.88456911  0.38550170    -0.03700
C1250       C  0.49864296  0.86323666  0.36872652    -0.18800
H1251       H  0.51624619  0.75803484  0.27006059     0.10300
H1252       H  0.52727097  0.78357012  0.30865004     0.10300
H1253       H  0.44601564  0.79717053  0.32267432     0.10000
H1254       H  0.43543899  0.77194925  0.28443144     0.11100
H1255       H  0.51383720  0.82101058  0.33708919     0.11200
H1256       H  0.46126048  0.80859975  0.36152803     0.13100
H1257       H  0.46208103  0.82382724  0.40723105     0.09600
H1258       H  0.46677198  0.86040630  0.43679290     0.11700
H1259       H  0.51137496  0.90158903  0.37916703     0.08300
H1260       H  0.50713140  0.86454081  0.34957218     0.11100
C1261       C  0.49106601  0.06888649  0.57174623    -0.03500
C1262       C  0.50081634  0.09255200  0.56225457    -0.06100
C1263       C  0.50347791  0.11403386  0.57850090    -0.21200
C1264       C  0.49596165  0.11276673  0.60460040     0.24500
C1265       C  0.48620999  0.08912245  0.61429391    -0.18800
C1266       C  0.48398650  0.06732877  0.59805326    -0.08700
C1267       C  0.50042897  0.13592252  0.62131403    -0.19000
C1268       C  0.48654873  0.14154527  0.64280460    -0.23800
C1269       C  0.49275713  0.16369755  0.66042209     0.26600
C1270       C  0.47361582  0.17343968  0.67728927    -0.20600
C1271       C  0.47972413  0.19200886  0.69623446    -0.10200
C1272       C  0.50523644  0.20080311  0.69894440    -0.10800
C1273       C  0.52411038  0.19187304  0.68144016    -0.03700
C1274       C  0.51800042  0.17365664  0.66239559    -0.18800
H1275       H  0.50686794  0.09438536  0.54222208     0.10300
H1276       H  0.51144273  0.13179747  0.57058725     0.10300
H1277       H  0.48092256  0.08722382  0.63450892     0.10000
H1278       H  0.47659572  0.04935344  0.60600878     0.11100
H1279       H  0.51539638  0.14929179  0.61501097     0.11200
H1280       H  0.46998712  0.12955371  0.64773714     0.13100
H1281       H  0.45406122  0.16601221  0.67637102     0.09600
H1282       H  0.46493401  0.19815055  0.70981062     0.11700
H1283       H  0.54401873  0.19808795  0.68332995     0.08300
H1284       H  0.53352446  0.16635316  0.65036122     0.11100
C1285       C  0.48217051  0.75682070  0.70214540    -0.03500
C1286       C  0.50621921  0.75527456  0.68949158    -0.06100
C1287       C  0.51146524  0.77107678  0.66780530    -0.21200
C1288       C  0.49295593  0.78896012  0.65889316     0.24500
C1289       C  0.46830222  0.78884678  0.67037811    -0.18800
C1290       C  0.46304257  0.77303251  0.69171477    -0.08700
C1291       C  0.49965820  0.80816148  0.63824913    -0.19000
C1292       C  0.49060153  0.83276812  0.63889447    -0.23800
C1293       C  0.49562279  0.85300058  0.61875416     0.26600
C1294       C  0.49132448  0.87917334  0.62509063    -0.20600
C1295       C  0.49335781  0.89868302  0.60627334    -0.10200
C1296       C  0.49943745  0.89248681  0.58045930    -0.10800
C1297       C  0.50432595  0.86631988  0.57422148    -0.03700
C1298       C  0.50249901  0.84683380  0.59310621    -0.18800
H1299       H  0.52148201  0.74338414  0.69745460     0.10300
H1300       H  0.53050790  0.77051663  0.65902535     0.10300
H1301       H  0.45328507  0.80166131  0.66344157     0.10000
H1302       H  0.44440711  0.77473052  0.70122978     0.11100
H1303       H  0.51324624  0.80233669  0.62328488     0.11200
H1304       H  0.47907353  0.83871616  0.65550333     0.13100
H1305       H  0.48584895  0.88452737  0.64464394     0.09600
H1306       H  0.48926078  0.91851231  0.61179111     0.11700
H1307       H  0.50900229  0.86074787  0.55453191     0.08300
H1308       H  0.50548101  0.82692942  0.58726214     0.11100
C1309       C  0.40028933  0.95202671  0.41015260    -0.03500
C1310       C  0.37457310  0.94794699  0.41800427    -0.06100
C1311       C  0.35628430  0.93869896  0.40043870    -0.21200
C1312       C  0.36332092  0.93300478  0.37478248     0.24500
C1313       C  0.38906806  0.93700952  0.36690248    -0.18800
C1314       C  0.40730626  0.94635008  0.38439102    -0.08700
C1315       C  0.34278276  0.92593591  0.35614631    -0.19000
C1316       C  0.34735190  0.91445523  0.33314463    -0.23800
C1317       C  0.32822399  0.91564731  0.31195467     0.26600
C1318       C  0.33727090  0.92020728  0.28674381    -0.20600
C1319       C  0.32036455  0.92884693  0.26765055    -0.10200
C1320       C  0.29414002  0.93312554  0.27358737    -0.10800
C1321       C  0.28453503  0.92507649  0.29776983    -0.03700
C1322       C  0.30146400  0.91626458  0.31682488    -0.18800
H1323       H  0.36852193  0.95195819  0.43769962     0.10300
H1324       H  0.33648087  0.93617035  0.40686447     0.10300
H1325       H  0.39514552  0.93381841  0.34709603     0.10000
H1326       H  0.42695495  0.94913906  0.37761978     0.11100
H1327       H  0.32343426  0.93266672  0.36077846     0.11200
H1328       H  0.36666621  0.90780854  0.32830027     0.13100
H1329       H  0.35776934  0.91942879  0.28242101     0.09600
H1330       H  0.32836976  0.93443767  0.24904557     0.11700
H1331       H  0.26428847  0.92742953  0.30262640     0.08300
H1332       H  0.29379089  0.91162638  0.33580616     0.11100
C1333       C  0.57878944  0.00405412  0.56800872    -0.03500
C1334       C  0.60288614  0.01105998  0.55735053    -0.06100
C1335       C  0.62173371  0.02268069  0.57263016    -0.21200
C1336       C  0.61696345  0.02778272  0.59884821     0.24500
C1337       C  0.59294143  0.02073338  0.60967338    -0.18800
C1338       C  0.57401674  0.00906392  0.59435788    -0.08700
C1339       C  0.63837188  0.03816975  0.61464476    -0.19000
C1340       C  0.63500998  0.05027470  0.63747842    -0.23800
C1341       C  0.65689337  0.05477250  0.65521999     0.26600
C1342       C  0.65270348  0.05179139  0.68188198    -0.20600
C1343       C  0.67361359  0.04967702  0.69868698    -0.10200
C1344       C  0.69902182  0.05065950  0.68899604    -0.10800
C1345       C  0.70307730  0.05691842  0.66279211    -0.03700
C1346       C  0.68216460  0.05896685  0.64601127    -0.18800
H1347       H  0.60720034  0.00781312  0.53706825     0.10300
H1348       H  0.64016947  0.02768632  0.56391850     0.10300
H1349       H  0.58884405  0.02354155  0.63003215     0.10000
H1350       H  0.55564370  0.00405017  0.60316066     0.11100
H1351       H  0.65779918  0.03423586  0.60765196     0.11200
H1352       H  0.61567332  0.05402821  0.64476236     0.13100
H1353       H  0.63333215  0.04902281  0.68944813     0.09600
H1354       H  0.66983511  0.04540781  0.71889301     0.11700
H1355       H  0.72241842  0.05848467  0.65482984     0.08300
H1356       H  0.68592336  0.06254088  0.62568186     0.11100
C1357       C  0.41289358  0.95831521  0.58452543    -0.03500
C1358       C  0.42274668  0.95974755  0.60984749    -0.06100
C1359       C  0.40838131  0.95059889  0.63082591    -0.21200
C1360       C  0.38389154  0.93968814  0.62709233     0.24500
C1361       C  0.37384829  0.93840776  0.60181445    -0.18800
C1362       C  0.38825949  0.94757756  0.58074933    -0.08700
C1363       C  0.36841952  0.93278821  0.65030123    -0.19000
C1364       C  0.34695595  0.91804605  0.64977904    -0.23800
C1365       C  0.32781854  0.91932260  0.67109996     0.26600
C1366       C  0.30158627  0.92088382  0.66470809    -0.20600
C1367       C  0.28371089  0.93012351  0.68280455    -0.10200
C1368       C  0.29191406  0.93778001  0.70759102    -0.10800
C1369       C  0.31746233  0.93247053  0.71504061    -0.03700
C1370       C  0.33531489  0.92330711  0.69691426    -0.18800
H1371       H  0.44170117  0.96780838  0.61354883     0.10300
H1372       H  0.41638741  0.95221759  0.65011283     0.10300
H1373       H  0.35466720  0.93102487  0.59815098     0.10000
H1374       H  0.38016197  0.94606963  0.56150983     0.11100
H1375       H  0.37377167  0.94242665  0.66818702     0.11200
H1376       H  0.34116816  0.90852755  0.63200977     0.13100
H1377       H  0.29532316  0.91742807  0.64501528     0.09600
H1378       H  0.26403210  0.93342900  0.67657973     0.11700
H1379       H  0.32425710  0.93745542  0.73420549     0.08300
H1380       H  0.35528732  0.92112686  0.70266085     0.11100
C1381       C  0.73565140  0.99613272  0.19446113    -0.03500
C1382       C  0.72742180  0.97208205  0.18487396    -0.06100
C1383       C  0.70963004  0.97073830  0.16452270    -0.21200
C1384       C  0.69958237  0.99337580  0.15322745     0.24500
C1385       C  0.70916425  0.01749994  0.16168361    -0.18800
C1386       C  0.72687655  0.01880236  0.18221932    -0.08700
C1387       C  0.67722431  0.99088259  0.13506503    -0.19000
C1388       C  0.67005495  0.00900219  0.11765120    -0.23800
C1389       C  0.64738248  0.00561596  0.10006981     0.26600
C1390       C  0.64835910  0.01627554  0.07508977    -0.20600
C1391       C  0.62751660  0.01349708  0.05809557    -0.10200
C1392       C  0.60465579  0.00076086  0.06585091    -0.10800
C1393       C  0.60340112  0.99051113  0.09107532    -0.03700
C1394       C  0.62461583  0.99268687  0.10791971    -0.18800
H1395       H  0.73305467  0.95435670  0.19458257     0.10300
H1396       H  0.70259238  0.95190217  0.15853875     0.10300
H1397       H  0.70162867  0.03542081  0.15390035     0.10000
H1398       H  0.73207705  0.03759546  0.18996113     0.11100
H1399       H  0.66644579  0.97281911  0.13575392     0.11200
H1400       H  0.68194928  0.02615284  0.11501145     0.13100
H1401       H  0.66546397  0.02654605  0.06856216     0.09600
H1402       H  0.62913358  0.02180904  0.03892675     0.11700
H1403       H  0.58609026  0.98070382  0.09772172     0.08300
H1404       H  0.62295593  0.98474194  0.12726184     0.11100
C1405       C  0.71166597  0.99963254  0.28528149    -0.03500
C1406       C  0.71744405  0.00293899  0.31161163    -0.06100
C1407       C  0.69782419  0.00186051  0.33023970    -0.21200
C1408       C  0.67208225  0.99737617  0.32298509     0.24500
C1409       C  0.66634103  0.99425676  0.29655026    -0.18800
C1410       C  0.68588245  0.99557032  0.27796911    -0.08700
C1411       C  0.65225558  0.99494630  0.34369947    -0.19000
C1412       C  0.62668650  0.99289039  0.33932329    -0.23800
C1413       C  0.60732407  0.98887899  0.36015970     0.26600
C1414       C  0.58118322  0.99366078  0.35476173    -0.20600
C1415       C  0.56231894  0.99019490  0.37387992    -0.10200
C1416       C  0.56937486  0.98198119  0.39877086    -0.10800
C1417       C  0.59539205  0.97649796  0.40396466    -0.03700
C1418       C  0.61414591  0.97965538  0.38484096    -0.18800
H1419       H  0.73712877  0.00615089  0.31787079     0.10300
H1420       H  0.70284933  0.00422575  0.35044792     0.10300
H1421       H  0.64705318  0.99020148  0.28983012     0.10000
H1422       H  0.68077302  0.99277270  0.25784987     0.11100
H1423       H  0.65930716  0.99507694  0.36342687     0.11200
H1424       H  0.61918364  0.99475414  0.31989053     0.13100
H1425       H  0.57537680  0.00039832  0.33578452     0.09600
H1426       H  0.54236433  0.99454398  0.36937631     0.11700
H1427       H  0.60129494  0.96963731  0.42286866     0.08300
H1428       H  0.63378811  0.97450374  0.38958946     0.11100
C1429       C  0.41327960  0.87957340  0.50012771    -0.03500
C1430       C  0.42258922  0.85712413  0.51242382    -0.06100
C1431       C  0.40745246  0.83469185  0.51397527    -0.21200
C1432       C  0.38286703  0.83376328  0.50268585     0.24500
C1433       C  0.37344642  0.85615633  0.49024848    -0.18800
C1434       C  0.38843305  0.87891333  0.48918470    -0.08700
C1435       C  0.36691674  0.80986624  0.50612308    -0.19000
C1436       C  0.34933252  0.80145259  0.48879324    -0.23800
C1437       C  0.33139400  0.77912824  0.49365141     0.26600
C1438       C  0.31872870  0.76729322  0.47265784    -0.20600
C1439       C  0.29814231  0.74992431  0.47681706    -0.10200
C1440       C  0.28971605  0.74423685  0.50208899    -0.10800
C1441       C  0.30362343  0.75448661  0.52300421    -0.03700
C1442       C  0.32422590  0.77162965  0.51891417    -0.18800
H1443       H  0.44156957  0.85698981  0.52118183     0.10300
H1444       H  0.41505652  0.81789739  0.52396870     0.10300
H1445       H  0.35429944  0.85631080  0.48190548     0.10000
H1446       H  0.38075622  0.89585125  0.47950523     0.11100
H1447       H  0.37044800  0.79847679  0.52342107     0.11200
H1448       H  0.34764640  0.81157607  0.47042489     0.13100
H1449       H  0.32373715  0.77269659  0.45298634     0.09600
H1450       H  0.28729466  0.74294549  0.46034165     0.11700
H1451       H  0.29703365  0.75102147  0.54265600     0.08300
H1452       H  0.33293739  0.78052858  0.53569255     0.11100
C1453       C  0.71175549  0.76857040  0.47936145    -0.03500
C1454       C  0.69454094  0.76658321  0.50034370    -0.06100
C1455       C  0.67232919  0.78218514  0.50129159    -0.21200
C1456       C  0.66705272  0.80001213  0.48135342     0.24500
C1457       C  0.68335268  0.80045335  0.45949523    -0.18800
C1458       C  0.70554398  0.78508389  0.45866529    -0.08700
C1459       C  0.64481885  0.81816122  0.48414351    -0.19000
C1460       C  0.64394945  0.84161655  0.47249732    -0.23800
C1461       C  0.62256099  0.86051145  0.47644442     0.26600
C1462       C  0.62747234  0.88710260  0.47306084    -0.20600
C1463       C  0.60781606  0.90543349  0.47668660    -0.10200
C1464       C  0.58266419  0.89750306  0.48342556    -0.10800
C1465       C  0.57771971  0.87080918  0.48638955    -0.03700
C1466       C  0.59737008  0.85255632  0.48291294    -0.18800
H1467       H  0.69911739  0.75431154  0.51671557     0.10300
H1468       H  0.65989762  0.78121325  0.51820655     0.10300
H1469       H  0.67940355  0.81304501  0.44323152     0.10000
H1470       H  0.71852795  0.78688527  0.44223364     0.11100
H1471       H  0.62970292  0.81280433  0.49777824     0.11200
H1472       H  0.66028409  0.84807308  0.46090744     0.13100
H1473       H  0.64665716  0.89373796  0.46778800     0.09600
H1474       H  0.61227431  0.92576395  0.47393511     0.11700
H1475       H  0.55854353  0.86389151  0.49127594     0.08300
H1476       H  0.59259825  0.83222942  0.48485602     0.11100
C1477       C  0.56560774  0.07157101  0.47962947    -0.03500
C1478       C  0.56031857  0.09094452  0.46129419    -0.06100
C1479       C  0.57698608  0.11217854  0.45822825    -0.21200
C1480       C  0.59884381  0.11506829  0.47402271     0.24500
C1481       C  0.60392793  0.09587141  0.49273275    -0.18800
C1482       C  0.58765478  0.07415197  0.49524823    -0.08700
C1483       C  0.61726562  0.13677013  0.46867980    -0.19000
C1484       C  0.63159264  0.14872831  0.48697276    -0.23800
C1485       C  0.65230951  0.16806161  0.48061457     0.26600
C1486       C  0.65927955  0.18727314  0.49868827    -0.20600
C1487       C  0.68069385  0.20361586  0.49419135    -0.10200
C1488       C  0.69594290  0.20060566  0.47178561    -0.10800
C1489       C  0.68844367  0.18189082  0.45345035    -0.03700
C1490       C  0.66693708  0.16597074  0.45770348    -0.18800
H1491       H  0.54356831  0.08932437  0.44889079     0.10300
H1492       H  0.57281028  0.12642160  0.44340630     0.10300
H1493       H  0.62092815  0.09717259  0.50479673     0.10000
H1494       H  0.59214747  0.05947531  0.50954926     0.11100
H1495       H  0.61882175  0.14329451  0.44872996     0.11200
H1496       H  0.62827493  0.14404064  0.50723149     0.13100
H1497       H  0.64850083  0.18921587  0.51661444     0.09600
H1498       H  0.68613455  0.21756759  0.50884494     0.11700
H1499       H  0.69982414  0.17892396  0.43603858     0.08300
H1500       H  0.66268277  0.15109582  0.44358345     0.11100
C1501       C  0.39455752  0.05593578  0.49245161    -0.03500
C1502       C  0.36948588  0.04949721  0.50083609    -0.06100
C1503       C  0.35012908  0.06852412  0.50234486    -0.21200
C1504       C  0.35511485  0.09443699  0.49525561     0.24500
C1505       C  0.37999447  0.10074678  0.48613972    -0.18800
C1506       C  0.39940068  0.08177641  0.48481325    -0.08700
C1507       C  0.33450270  0.11435632  0.49983566    -0.19000
C1508       C  0.33414892  0.13875547  0.49003234    -0.23800
C1509       C  0.31373328  0.15800858  0.49751170     0.26600
C1510       C  0.30503246  0.17686752  0.47980430    -0.20600
C1511       C  0.28510620  0.19431905  0.48660790    -0.10200
C1512       C  0.27379402  0.19352356  0.51145437    -0.10800
C1513       C  0.28359481  0.17542090  0.52940931    -0.03700
C1514       C  0.30315109  0.15803765  0.52258888    -0.18800
H1515       H  0.36497284  0.02990670  0.50689774     0.10300
H1516       H  0.33120901  0.06302708  0.50955594     0.10300
H1517       H  0.38488975  0.12043025  0.48083690     0.10000
H1518       H  0.41841496  0.08751592  0.47807832     0.11100
H1519       H  0.31848701  0.10837615  0.51213653     0.11200
H1520       H  0.34853943  0.14465828  0.47586035     0.13100
H1521       H  0.31317053  0.17763058  0.46045544     0.09600
H1522       H  0.27821543  0.20797903  0.47229933     0.11700
H1523       H  0.27591261  0.17432319  0.54892247     0.08300
H1524       H  0.31003469  0.14463291  0.53714027     0.11100
C1525       C  0.91995974  0.00598543  0.56615075    -0.03500
C1526       C  0.89676591  0.99280973  0.56133142    -0.06100
C1527       C  0.87704301  0.99249229  0.57999178    -0.21200
C1528       C  0.87993940  0.00555777  0.60371395     0.24500
C1529       C  0.90319881  0.01882772  0.60845556    -0.18800
C1530       C  0.92302688  0.01886011  0.58993307    -0.08700
C1531       C  0.85747575  0.00662371  0.62182941    -0.19000
C1532       C  0.85853460  0.01417432  0.64685490    -0.23800
C1533       C  0.83463254  0.01738625  0.66264643     0.26600
C1534       C  0.83411508  0.01066339  0.68906634    -0.20600
C1535       C  0.81123807  0.01322349  0.70375833    -0.10200
C1536       C  0.78872445  0.02320785  0.69234332    -0.10800
C1537       C  0.78978493  0.03057409  0.66600498    -0.03700
C1538       C  0.81230096  0.02773202  0.65145007    -0.18800
H1539       H  0.89402728  0.98247983  0.54329252     0.10300
H1540       H  0.85931001  0.98219167  0.57576177     0.10300
H1541       H  0.90602146  0.02973526  0.62608318     0.10000
H1542       H  0.94067609  0.02935963  0.59403490     0.11100
H1543       H  0.83884990  0.00099496  0.61397558     0.11200
H1544       H  0.87696548  0.01765504  0.65613699     0.13100
H1545       H  0.85128229  0.00297427  0.69818496     0.09600
H1546       H  0.81120214  0.00752639  0.72393745     0.11700
H1547       H  0.77306760  0.03850982  0.65629040     0.08300
H1548       H  0.81224959  0.03391014  0.63139398     0.11100
C1549       C  0.09121060  0.00530725  0.58110969    -0.03500
C1550       C  0.08079580  0.00253856  0.60620478    -0.06100
C1551       C  0.09675717  0.00240652  0.62790181    -0.21200
C1552       C  0.12351802  0.00554584  0.62529572     0.24500
C1553       C  0.13412812  0.00892976  0.60035075    -0.18800
C1554       C  0.11811099  0.00870903  0.57843377    -0.08700
C1555       C  0.13977239  0.00234293  0.64870914    -0.19000
C1556       C  0.16256670  0.01434306  0.65243436    -0.23800
C1557       C  0.17948518  0.00784185  0.67476757     0.26600
C1558       C  0.19585035  0.02670993  0.68556349    -0.20600
C1559       C  0.21427431  0.01983174  0.70428552    -0.10200
C1560       C  0.21694245  0.99385132  0.71195487    -0.10800
C1561       C  0.19971947  0.97532472  0.70206706    -0.03700
C1562       C  0.18118687  0.98219968  0.68379196    -0.18800
H1563       H  0.06023071  0.99990849  0.60916602     0.10300
H1564       H  0.08815290  0.99953565  0.64686344     0.10300
H1565       H  0.15481048  0.01079893  0.59769091     0.10000
H1566       H  0.12679611  0.01096636  0.55944001     0.11100
H1567       H  0.13232037  0.98965203  0.66380552     0.11200
H1568       H  0.16910184  0.02899212  0.63876877     0.13100
H1569       H  0.19497946  0.04657682  0.67883549     0.09600
H1570       H  0.22765828  0.03436804  0.71122743     0.11700
H1571       H  0.20164419  0.95509279  0.70736389     0.08300
H1572       H  0.16936330  0.96702223  0.67553115     0.11100
C1573       C  0.22529552  0.99635908  0.26644433    -0.03500
C1574       C  0.19944044  0.99156074  0.25996877    -0.06100
C1575       C  0.17947776  0.99809881  0.27731841    -0.21200
C1576       C  0.18503331  0.00902331  0.30165611     0.24500
C1577       C  0.21081673  0.01544634  0.30727369    -0.18800
C1578       C  0.23069234  0.00898407  0.28992560    -0.08700
C1579       C  0.16370138  0.01213267  0.32102685    -0.19000
C1580       C  0.16721102  0.01014925  0.34696781    -0.23800
C1581       C  0.14588582  0.00934864  0.36676777     0.26600
C1582       C  0.15223904  0.00939597  0.39329157    -0.20600
C1583       C  0.13295594  0.00781552  0.41251047    -0.10200
C1584       C  0.10674162  0.00609556  0.40566278    -0.10800
C1585       C  0.10046879  0.00577174  0.37914718    -0.03700
C1586       C  0.11963633  0.00733642  0.36003888    -0.18800
H1587       H  0.19481721  0.98118099  0.24236390     0.10300
H1588       H  0.15976515  0.99312454  0.27238404     0.10300
H1589       H  0.21581852  0.02466457  0.32538599     0.10000
H1590       H  0.25053965  0.01248501  0.29552501     0.11100
H1591       H  0.14441357  0.01395774  0.31323598     0.11200
H1592       H  0.18671760  0.00776369  0.35421355     0.13100
H1593       H  0.17225723  0.01064432  0.39920338     0.09600
H1594       H  0.13858913  0.00804718  0.43267964     0.11700
H1595       H  0.08055917  0.00427080  0.37296348     0.08300
H1596       H  0.11349451  0.00658418  0.34011713     0.11100
C1597       C  0.80341631  0.99562635  0.26375058    -0.03500
C1598       C  0.81083899  0.97250066  0.27588289    -0.06100
C1599       C  0.83204656  0.97188554  0.29260753    -0.21200
C1600       C  0.84638307  0.99441182  0.29790360     0.24500
C1601       C  0.83995276  0.01734086  0.28443614    -0.18800
C1602       C  0.81855220  0.01792225  0.26762891    -0.08700
C1603       C  0.86553889  0.99341334  0.31965957    -0.19000
C1604       C  0.88388465  0.01136816  0.32468379    -0.23800
C1605       C  0.90137229  0.00976000  0.34775734     0.26600
C1606       C  0.92669444  0.01946000  0.34599449    -0.20600
C1607       C  0.94340026  0.01855014  0.36735177    -0.10200
C1608       C  0.93506181  0.00852744  0.39138254    -0.10800
C1609       C  0.90949349  0.99930461  0.39332378    -0.03700
C1610       C  0.89293800  0.99973143  0.37177262    -0.18800
H1611       H  0.79906254  0.95525380  0.27386040     0.10300
H1612       H  0.83638225  0.95394867  0.30259587     0.10300
H1613       H  0.85018873  0.03523242  0.28810187     0.10000
H1614       H  0.81269581  0.03621275  0.25919053     0.11100
H1615       H  0.86438714  0.97666014  0.33236849     0.11200
H1616       H  0.88697504  0.02718268  0.31115336     0.13100
H1617       H  0.93369457  0.02754221  0.32790489     0.09600
H1618       H  0.96284620  0.02601835  0.36510340     0.11700
H1619       H  0.90233783  0.99148989  0.41146319     0.08300
H1620       H  0.87336276  0.99267250  0.37410906     0.11100
C1621       C  0.09777494  0.91501556  0.49689315    -0.03500
C1622       C  0.12424241  0.92095740  0.49898301    -0.06100
C1623       C  0.14233811  0.90148145  0.50407999    -0.21200
C1624       C  0.13441895  0.87572147  0.50766373     0.24500
C1625       C  0.10809119  0.86956989  0.50489845    -0.18800
C1626       C  0.09000775  0.88898737  0.49957729    -0.08700
C1627       C  0.15419470  0.85564210  0.51322836    -0.19000
C1628       C  0.14907447  0.83387708  0.52676517    -0.23800
C1629       C  0.16815194  0.81263881  0.52967876     0.26600
C1630       C  0.15916942  0.78700773  0.53025603    -0.20600
C1631       C  0.17651220  0.76632965  0.52887193    -0.10200
C1632       C  0.20324923  0.77092395  0.52718692    -0.10800
C1633       C  0.21232537  0.79654719  0.52927700    -0.03700
C1634       C  0.19492949  0.81724564  0.53043564    -0.18800
H1635       H  0.13101069  0.94071464  0.49690294     0.10300
H1636       H  0.16256769  0.90663311  0.50569470     0.10300
H1637       H  0.10139836  0.84975917  0.50652219     0.10000
H1638       H  0.06986314  0.88359087  0.49787865     0.11100
H1639       H  0.17355071  0.85897358  0.50571837     0.11200
H1640       H  0.12970556  0.83051209  0.53421030     0.13100
H1641       H  0.13861988  0.78298207  0.53020316     0.09600
H1642       H  0.16885786  0.74682373  0.52777153     0.11700
H1643       H  0.23282385  0.80075858  0.52861787     0.08300
H1644       H  0.20247626  0.83679795  0.53115535     0.11100
C1645       C  0.80428032  0.78554866  0.47397364    -0.03500
C1646       C  0.83002591  0.77750156  0.47718434    -0.06100
C1647       C  0.85022794  0.79523434  0.47494732    -0.21200
C1648       C  0.84509674  0.82133921  0.46974454     0.24500
C1649       C  0.81946484  0.82932516  0.46565655    -0.18800
C1650       C  0.79923112  0.81156640  0.46776724    -0.08700
C1651       C  0.86691554  0.83970485  0.46868560    -0.19000
C1652       C  0.86449128  0.86448298  0.47622283    -0.23800
C1653       C  0.88613833  0.88314427  0.47614403     0.26600
C1654       C  0.88030007  0.90963418  0.47563191    -0.20600
C1655       C  0.89996615  0.92803089  0.47637506    -0.10200
C1656       C  0.92593672  0.92025333  0.47794168    -0.10800
C1657       C  0.93183177  0.89369093  0.47830129    -0.03700
C1658       C  0.91212986  0.87528283  0.47753379    -0.18800
H1659       H  0.83461407  0.75756576  0.48183159     0.10300
H1660       H  0.86987947  0.78867631  0.47792273     0.10300
H1661       H  0.81498848  0.84920290  0.46071067     0.10000
H1662       H  0.77964481  0.81832001  0.46488540     0.11100
H1663       H  0.88549256  0.83218848  0.46244887     0.11200
H1664       H  0.84578981  0.87160056  0.48266661     0.13100
H1665       H  0.86041760  0.91612738  0.47469149     0.09600
H1666       H  0.89473061  0.94834733  0.47603560     0.11700
H1667       H  0.95164080  0.88706861  0.47959766     0.08300
H1668       H  0.91741885  0.85505933  0.47876898     0.11100
C1669       C  0.93008333  0.09207183  0.46962900    -0.03500
C1670       C  0.93612104  0.11862188  0.47040772    -0.06100
C1671       C  0.91784310  0.13705931  0.46290550    -0.21200
C1672       C  0.89335683  0.12932161  0.45424882     0.24500
C1673       C  0.88738871  0.10273583  0.45347009    -0.18800
C1674       C  0.90554652  0.08438966  0.46099163    -0.08700
C1675       C  0.87367454  0.14938714  0.44873667    -0.19000
C1676       C  0.85206666  0.14464579  0.43512874    -0.23800
C1677       C  0.82971015  0.16235615  0.43587466     0.26600
C1678       C  0.80485208  0.15161415  0.43710418    -0.20600
C1679       C  0.78342898  0.16736966  0.44174124    -0.10200
C1680       C  0.78654130  0.19421476  0.44501503    -0.10800
C1681       C  0.81128150  0.20514867  0.44185035    -0.03700
C1682       C  0.83270570  0.18935338  0.43734964    -0.18800
H1683       H  0.95489744  0.12517021  0.47687690     0.10300
H1684       H  0.92277025  0.15743813  0.46402797     0.10300
H1685       H  0.86849728  0.09583436  0.44791452     0.10000
H1686       H  0.90024746  0.06410281  0.46000655     0.11100
H1687       H  0.87623626  0.16812029  0.45796081     0.11200
H1688       H  0.84923538  0.12603674  0.42582518     0.13100
H1689       H  0.80216295  0.13082081  0.43589704     0.09600
H1690       H  0.76465619  0.15833869  0.44399486     0.11700
H1691       H  0.81428130  0.22582495  0.44384562     0.08300
H1692       H  0.85161366  0.19820863  0.43568080     0.11100
C1693       C  0.09605079  0.08551825  0.51834404    -0.03500
C1694       C  0.12116326  0.07681028  0.52370328    -0.06100
C1695       C  0.13722732  0.09095815  0.53991796    -0.21200
C1696       C  0.12863274  0.11408123  0.55123192     0.24500
C1697       C  0.10364325  0.12316611  0.54557626    -0.18800
C1698       C  0.08747500  0.10894293  0.52932098    -0.08700
C1699       C  0.14757858  0.12949373  0.56598602    -0.19000
C1700       C  0.14159916  0.14975898  0.58127754    -0.23800
C1701       C  0.16129121  0.16996941  0.58572394     0.26600
C1702       C  0.15473364  0.19556426  0.57963201    -0.20600
C1703       C  0.17386778  0.21273534  0.57126032    -0.10200
C1704       C  0.19960899  0.20423007  0.56884385    -0.10800
C1705       C  0.20661247  0.18053539  0.58027855    -0.03700
C1706       C  0.18746825  0.16343401  0.58875445    -0.18800
H1707       H  0.12831740  0.05873485  0.51579511     0.10300
H1708       H  0.15654526  0.08380325  0.54360433     0.10300
H1709       H  0.09660367  0.14137591  0.55316076     0.10000
H1710       H  0.06808454  0.11601003  0.52586942     0.11100
H1711       H  0.16775251  0.12558758  0.56153677     0.11200
H1712       H  0.12158474  0.15438256  0.58555177     0.13100
H1713       H  0.13465134  0.20118181  0.57779137     0.09600
H1714       H  0.16792807  0.23128833  0.56348989     0.11700
H1715       H  0.22642576  0.17380399  0.57967118     0.08300
H1716       H  0.19298684  0.14403634  0.59454469     0.11100
C1717       C  0.00588023  0.72639278  0.19953766    -0.03500
C1718       C  0.98222107  0.71684881  0.19039863    -0.06100
C1719       C  0.98152550  0.69932317  0.16971051    -0.21200
C1720       C  0.00448232  0.69056223  0.15798033     0.24500
C1721       C  0.02808481  0.70156873  0.16602454    -0.18800
C1722       C  0.02869768  0.71937550  0.18655756    -0.08700
C1723       C  0.00299602  0.66811913  0.13970807    -0.19000
C1724       C  0.02243728  0.66020643  0.12415071    -0.23800
C1725       C  0.01998935  0.63734242  0.10678545     0.26600
C1726       C  0.02999218  0.63885855  0.08157259    -0.20600
C1727       C  0.02762609  0.61794271  0.06455514    -0.10200
C1728       C  0.01594531  0.59463625  0.07261679    -0.10800
C1729       C  0.00676870  0.59268629  0.09821330    -0.03700
C1730       C  0.00849247  0.61398198  0.11508266    -0.18800
H1731       H  0.96441809  0.72149288  0.20049912     0.10300
H1732       H  0.96305908  0.69135632  0.16392257     0.10300
H1733       H  0.04629681  0.69524553  0.15789798     0.10000
H1734       H  0.04722377  0.72581401  0.19382535     0.11100
H1735       H  0.98484889  0.65751860  0.13901529     0.11200
H1736       H  0.04000508  0.67157886  0.12261967     0.13100
H1737       H  0.03920693  0.65650081  0.07484947     0.09600
H1738       H  0.03520912  0.61992439  0.04505703     0.11700
H1739       H  0.99782082  0.57492994  0.10497808     0.08300
H1740       H  0.00113582  0.61211198  0.13466433     0.11100
C1741       C  0.02706489  0.79337139  0.26634099    -0.03500
C1742       C  0.01419004  0.81561620  0.25751872    -0.06100
C1743       C  0.01558541  0.83885682  0.27171508    -0.21200
C1744       C  0.02967524  0.84005612  0.29495053     0.24500
C1745       C  0.04482650  0.81858622  0.30196361    -0.18800
C1746       C  0.04341197  0.79552692  0.28790108    -0.08700
C1747       C  0.02698267  0.86297534  0.31247107    -0.19000
C1748       C  0.02722670  0.86036234  0.33855794    -0.23800
C1749       C  0.02303282  0.88157077  0.35786235     0.26600
C1750       C  0.02425089  0.90811718  0.35162669    -0.20600
C1751       C  0.02173759  0.92699827  0.37108743    -0.10200
C1752       C  0.01809352  0.91984140  0.39724409    -0.10800
C1753       C  0.01612083  0.89334098  0.40320957    -0.03700
C1754       C  0.01863801  0.87455359  0.38383423    -0.18800
H1755       H  0.00137769  0.81445992  0.24104020     0.10300
H1756       H  0.00416306  0.85530879  0.26556671     0.10300
H1757       H  0.05690383  0.81915655  0.31901228     0.10000
H1758       H  0.05383115  0.77874143  0.29492670     0.11100
H1759       H  0.02246616  0.88155947  0.30379158     0.11200
H1760       H  0.02957181  0.84102977  0.34654359     0.13100
H1761       H  0.02781209  0.91445833  0.33197125     0.09600
H1762       H  0.02322383  0.94722453  0.36566360     0.11700
H1763       H  0.01305693  0.88699994  0.42298355     0.08300
H1764       H  0.01745706  0.85430581  0.38928886     0.11100
C1765       C  0.01094664  0.41614704  0.90316963    -0.03500
C1766       C  0.01429309  0.42313370  0.87702798    -0.06100
C1767       C  0.01772592  0.40424505  0.85786696    -0.21200
C1768       C  0.01758833  0.37769440  0.86400415     0.24500
C1769       C  0.01317297  0.37048830  0.88999424    -0.18800
C1770       C  0.00994375  0.38950721  0.90933398    -0.08700
C1771       C  0.02410725  0.35878652  0.84289917    -0.19000
C1772       C  0.02003724  0.33283576  0.84351709    -0.23800
C1773       C  0.02802745  0.31533109  0.82165109     0.26600
C1774       C  0.01438157  0.29222156  0.81661008    -0.20600
C1775       C  0.02092891  0.27637887  0.79527457    -0.10200
C1776       C  0.04150251  0.28319899  0.77868143    -0.10800
C1777       C  0.05597042  0.30555167  0.78478921    -0.03700
C1778       C  0.04940475  0.32128077  0.80584183    -0.18800
H1779       H  0.01515435  0.44333061  0.87136714     0.10300
H1780       H  0.02106291  0.41051053  0.83809869     0.10300
H1781       H  0.01315368  0.35030859  0.89566575     0.10000
H1782       H  0.00725124  0.38332964  0.92921182     0.11100
H1783       H  0.03237777  0.36710294  0.82540202     0.11200
H1784       H  0.00974751  0.32428115  0.85976199     0.13100
H1785       H  0.99811599  0.28682441  0.82874320     0.09600
H1786       H  0.00942649  0.25930890  0.79134236     0.11700
H1787       H  0.07232306  0.31132351  0.77295059     0.08300
H1788       H  0.06123387  0.33814288  0.80964719     0.11100
C1789       C  0.02840193  0.21125172  0.71385109    -0.03500
C1790       C  0.03816789  0.18662859  0.71997642    -0.06100
C1791       C  0.03327533  0.16529581  0.70367747    -0.21200
C1792       C  0.01898280  0.16827933  0.68067804     0.24500
C1793       C  0.00754194  0.19254154  0.67583029    -0.18800
C1794       C  0.01235266  0.21370554  0.69209947    -0.08700
C1795       C  0.01701641  0.14616447  0.66181773    -0.19000
C1796       C  0.01358913  0.14963111  0.63598878    -0.23800
C1797       C  0.01258287  0.12857224  0.61587004     0.26600
C1798       C  0.01349310  0.13572252  0.58955173    -0.20600
C1799       C  0.01246529  0.11706927  0.56979961    -0.10200
C1800       C  0.01036513  0.09051389  0.57567986    -0.10800
C1801       C  0.00919457  0.08330364  0.60204184    -0.03700
C1802       C  0.01024795  0.10201475  0.62184865    -0.18800
H1803       H  0.05118818  0.18431070  0.73617084     0.10300
H1804       H  0.04203526  0.14679184  0.70820754     0.10300
H1805       H  0.99552983  0.19555865  0.65901599     0.10000
H1806       H  0.00498226  0.23257906  0.68663805     0.11100
H1807       H  0.02021053  0.12681139  0.66932513     0.11200
H1808       H  0.01246913  0.16932362  0.62869508     0.13100
H1809       H  0.01515194  0.15595534  0.58416458     0.09600
H1810       H  0.01347087  0.12352911  0.54986220     0.11700
H1811       H  0.00749043  0.06309562  0.60745861     0.08300
H1812       H  0.00898960  0.09548824  0.64170606     0.11100
C1813       C  0.98762499  0.73088393  0.78402829    -0.03500
C1814       C  0.96627114  0.72772224  0.80065477    -0.06100
C1815       C  0.96806626  0.71203141  0.82282208    -0.21200
C1816       C  0.99099599  0.69852807  0.82831064     0.24500
C1817       C  0.01291164  0.70336874  0.81280600    -0.18800
C1818       C  0.01119802  0.71936025  0.79089629    -0.08700
C1819       C  0.99112307  0.67856189  0.84932137    -0.19000
C1820       C  0.00432125  0.65598025  0.84722081    -0.23800
C1821       C  0.00336153  0.63444180  0.86670643     0.26600
C1822       C  0.01036893  0.60918502  0.85904841    -0.20600
C1823       C  0.00999814  0.58847092  0.87676533    -0.10200
C1824       C  0.00297101  0.59257241  0.90277140    -0.10800
C1825       C  0.99624968  0.61794190  0.91046180    -0.03700
C1826       C  0.99640093  0.63854265  0.89273941    -0.18800
H1827       H  0.94764225  0.73562832  0.79534888     0.10300
H1828       H  0.95095107  0.70888345  0.83457920     0.10300
H1829       H  0.03108519  0.69387728  0.81691452     0.10000
H1830       H  0.02772994  0.72088009  0.77803091     0.11100
H1831       H  0.97808075  0.68149795  0.86556948     0.11200
H1832       H  0.01525990  0.65237912  0.82957740     0.13100
H1833       H  0.01611048  0.60542957  0.83920101     0.09600
H1834       H  0.01567169  0.56936271  0.87020558     0.11700
H1835       H  0.99091974  0.62199282  0.93036013     0.08300
H1836       H  0.99155991  0.65770229  0.89971049     0.11100
C1837       C  0.98527950  0.78958560  0.70599354    -0.03500
C1838       C  0.00359201  0.80841968  0.71308435    -0.06100
C1839       C  0.00774969  0.83044106  0.69731385    -0.21200
C1840       C  0.99380446  0.83395222  0.67414947     0.24500
C1841       C  0.97462796  0.81570274  0.66798828    -0.18800
C1842       C  0.97057804  0.79389278  0.68353041    -0.08700
C1843       C  0.99908720  0.85670437  0.65671409    -0.19000
C1844       C  0.99562793  0.85547534  0.63071836    -0.23800
C1845       C  0.99953832  0.87719528  0.61175912     0.26600
C1846       C  0.00137942  0.87101615  0.58528100    -0.20600
C1847       C  0.00366694  0.89040105  0.56637383    -0.10200
C1848       C  0.00396269  0.91676161  0.57328050    -0.10800
C1849       C  0.00212746  0.92304800  0.59985164    -0.03700
C1850       C  0.99994572  0.90354568  0.61885397    -0.18800
H1851       H  0.01533412  0.80563698  0.73016047     0.10300
H1852       H  0.02241273  0.84435083  0.70280340     0.10300
H1853       H  0.96262701  0.81814914  0.65106242     0.10000
H1854       H  0.95599841  0.78004165  0.67766103     0.11100
H1855       H  0.00679348  0.87423047  0.66534457     0.11200
H1856       H  0.99017574  0.83695337  0.62239815     0.13100
H1857       H  0.00093477  0.85095931  0.57910094     0.09600
H1858       H  0.00501284  0.88464319  0.54625070     0.11700
H1859       H  0.00218124  0.94310235  0.60601610     0.08300
H1860       H  0.99802229  0.90923258  0.63892822     0.11100
C1861       C  0.21447494  0.68298478  0.49515169    -0.03500
C1862       C  0.22210075  0.65862158  0.50457914    -0.06100
C1863       C  0.20592053  0.63684817  0.50137535    -0.21200
C1864       C  0.18185119  0.63915635  0.48888390     0.24500
C1865       C  0.17534049  0.66322472  0.47791287    -0.18800
C1866       C  0.19126867  0.68480371  0.48126556    -0.08700
C1867       C  0.16346838  0.61668518  0.48807925    -0.19000
C1868       C  0.13750649  0.62011847  0.48778557    -0.23800
C1869       C  0.11738269  0.59923782  0.48786605     0.26600
C1870       C  0.09146979  0.60660596  0.49166536    -0.20600
C1871       C  0.07156370  0.58823296  0.49195079    -0.10200
C1872       C  0.07692203  0.56177974  0.48838609    -0.10800
C1873       C  0.10284697  0.55431748  0.48423614    -0.03700
C1874       C  0.12284229  0.57279029  0.48391893    -0.18800
H1875       H  0.23969399  0.65674968  0.51569223     0.10300
H1876       H  0.21163562  0.61847876  0.50973411     0.10300
H1877       H  0.15764119  0.66567493  0.46712268     0.10000
H1878       H  0.18494296  0.70334269  0.47373749     0.11100
H1879       H  0.17148255  0.59731859  0.48935927     0.11200
H1880       H  0.13016967  0.63980047  0.48864510     0.13100
H1881       H  0.08653163  0.62679885  0.49459106     0.09600
H1882       H  0.05194400  0.59482320  0.49515719     0.11700
H1883       H  0.10774054  0.53414421  0.48117386     0.08300
H1884       H  0.14237571  0.56621574  0.48041941     0.11100
C1885       C  0.89608653  0.39373439  0.50006604    -0.03500
C1886       C  0.90138544  0.36701582  0.50135022    -0.06100
C1887       C  0.88128618  0.34877137  0.50290523    -0.21200
C1888       C  0.85522201  0.35653082  0.50298141     0.24500
C1889       C  0.84980940  0.38327182  0.50211289    -0.18800
C1890       C  0.86994656  0.40157296  0.50069458    -0.08700
C1891       C  0.83458957  0.33606055  0.50417609    -0.19000
C1892       C  0.80980696  0.33941428  0.49651250    -0.23800
C1893       C  0.79078265  0.31756773  0.49462117     0.26600
C1894       C  0.77211196  0.31794121  0.47488366    -0.20600
C1895       C  0.75642307  0.29620517  0.47018808    -0.10200
C1896       C  0.75859804  0.27390429  0.48560744    -0.10800
C1897       C  0.77579462  0.27429148  0.50658853    -0.03700
C1898       C  0.79164683  0.29587055  0.51114570    -0.18800
H1899       H  0.92113470  0.36010436  0.50107724     0.10300
H1900       H  0.88617618  0.32837545  0.50372448     0.10300
H1901       H  0.83010848  0.39022594  0.50278780     0.10000
H1902       H  0.86495884  0.42193810  0.49998969     0.11100
H1903       H  0.84074678  0.31672848  0.50972355     0.11200
H1904       H  0.80393604  0.35802273  0.48873674     0.13100
H1905       H  0.77087513  0.33441806  0.46193841     0.09600
H1906       H  0.74405624  0.29608680  0.45332284     0.11700
H1907       H  0.77834789  0.25706724  0.51831585     0.08300
H1908       H  0.80522718  0.29509966  0.52699731     0.11100
C1909       C  0.07355678  0.39006743  0.49017154    -0.03500
C1910       C  0.09753015  0.39751148  0.50065256    -0.06100
C1911       C  0.11831015  0.38021803  0.50168709    -0.21200
C1912       C  0.11617138  0.35493360  0.49191168     0.24500
C1913       C  0.09211638  0.34716736  0.48163134    -0.18800
C1914       C  0.07100258  0.36451799  0.48093338    -0.08700
C1915       C  0.13929087  0.33744510  0.49405266    -0.19000
C1916       C  0.14339314  0.31571003  0.47992943    -0.23800
C1917       C  0.16630109  0.29809923  0.48345076     0.26600
C1918       C  0.16427724  0.27204851  0.47569719    -0.20600
C1919       C  0.18364046  0.25404138  0.48185520    -0.10200
C1920       C  0.20579037  0.26168851  0.49551349    -0.10800
C1921       C  0.20892915  0.28807716  0.50133554    -0.03700
C1922       C  0.18955361  0.30615037  0.49519766    -0.18800
H1923       H  0.10026529  0.41684634  0.50834188     0.10300
H1924       H  0.13632705  0.38678412  0.51004936     0.10300
H1925       H  0.08935958  0.32766985  0.47449250     0.10000
H1926       H  0.05283011  0.35806624  0.47286766     0.11100
H1927       H  0.15372983  0.34314799  0.50809561     0.11200
H1928       H  0.12888539  0.30976848  0.46604591     0.13100
H1929       H  0.14686218  0.26520676  0.46635714     0.09600
H1930       H  0.18028340  0.23370029  0.47788444     0.11700
H1931       H  0.22547609  0.29440131  0.51244397     0.08300
H1932       H  0.19253494  0.32615401  0.50062927     0.11100
C1933       C  0.90318731  0.56789397  0.49950281    -0.03500
C1934       C  0.91071696  0.59406424  0.49761690    -0.06100
C1935       C  0.89243190  0.61401104  0.49943352    -0.21200
C1936       C  0.86604781  0.60850412  0.50300794     0.24500
C1937       C  0.85838595  0.58236775  0.50478348    -0.18800
C1938       C  0.87671884  0.56235537  0.50300817    -0.08700
C1939       C  0.84757213  0.63065061  0.50562093    -0.19000
C1940       C  0.82173122  0.62909018  0.50205636    -0.23800
C1941       C  0.80471369  0.65244815  0.50288141     0.26600
C1942       C  0.78357832  0.65434464  0.48591719    -0.20600
C1943       C  0.76961401  0.67760714  0.48373967    -0.10200
C1944       C  0.77643342  0.69916452  0.49877924    -0.10800
C1945       C  0.79606568  0.69649012  0.51729521    -0.03700
C1946       C  0.80997715  0.67339132  0.51944084    -0.18800
H1947       H  0.93082471  0.59923163  0.49482918     0.10300
H1948       H  0.89898457  0.63391688  0.49802999     0.10300
H1949       H  0.83837794  0.57722683  0.50807209     0.10000
H1950       H  0.87013083  0.54249919  0.50465380     0.11100
H1951       H  0.85601713  0.64958573  0.50922030     0.11200
H1952       H  0.81312884  0.61090335  0.49604716     0.13100
H1953       H  0.77893997  0.63837921  0.47314745     0.09600
H1954       H  0.75493698  0.67936128  0.46896078     0.11700
H1955       H  0.80173704  0.71292407  0.52903367     0.08300
H1956       H  0.82547577  0.67231753  0.53340306     0.11100
C1957       C  0.07032537  0.48017532  0.40129044    -0.03500
C1958       C  0.06406240  0.48621230  0.37551427    -0.06100
C1959       C  0.08360717  0.49020475  0.35697554    -0.21200
C1960       C  0.10985495  0.48789089  0.36357408     0.24500
C1961       C  0.11614142  0.48112224  0.38913723    -0.18800
C1962       C  0.09665869  0.47734621  0.40770518    -0.08700
C1963       C  0.13001374  0.49469155  0.34392459    -0.19000
C1964       C  0.15462388  0.48587642  0.34420880    -0.23800
C1965       C  0.17401620  0.49386702  0.32426284     0.26600
C1966       C  0.19251837  0.47607264  0.31508863    -0.20600
C1967       C  0.20946811  0.48282000  0.29477522    -0.10200
C1968       C  0.20832224  0.50760650  0.28351763    -0.10800
C1969       C  0.19102612  0.52587582  0.29405505    -0.03700
C1970       C  0.17413320  0.51913057  0.31413797    -0.18800
H1971       H  0.04410013  0.48863011  0.36981499     0.10300
H1972       H  0.07819808  0.49552289  0.33744023     0.10300
H1973       H  0.13608759  0.47969866  0.39515728     0.10000
H1974       H  0.10235529  0.47275164  0.42732917     0.11100
H1975       H  0.12401946  0.50708963  0.32803326     0.11200
H1976       H  0.16034039  0.47145879  0.35838144     0.13100
H1977       H  0.19309201  0.45658645  0.32287767     0.09600
H1978       H  0.22250559  0.46830862  0.28706957     0.11700
H1979       H  0.18996364  0.54530757  0.28617269     0.08300
H1980       H  0.16087453  0.53363401  0.32146760     0.11100
C1981       C  0.76519137  0.47920622  0.28312479    -0.03500
C1982       C  0.77890387  0.45591928  0.28575990    -0.06100
C1983       C  0.79643310  0.45249674  0.30605616    -0.21200
C1984       C  0.80067206  0.47225971  0.32426015     0.24500
C1985       C  0.78534392  0.49482291  0.32279639    -0.18800
C1986       C  0.76789171  0.49825626  0.30233737    -0.08700
C1987       C  0.82317455  0.46980283  0.34220329    -0.19000
C1988       C  0.82679283  0.48467394  0.36333227    -0.23800
C1989       C  0.85019526  0.48298972  0.37995664     0.26600
C1990       C  0.84761621  0.48804514  0.40649115    -0.20600
C1991       C  0.86911743  0.48756436  0.42273061    -0.10200
C1992       C  0.89399457  0.48242250  0.41281229    -0.10800
C1993       C  0.89674359  0.47786496  0.38606220    -0.03700
C1994       C  0.87503285  0.47799227  0.36980322    -0.18800
H1995       H  0.77794723  0.44136994  0.27067323     0.10300
H1996       H  0.80793094  0.43496641  0.30655405     0.10300
H1997       H  0.78815628  0.51078152  0.33603544     0.10000
H1998       H  0.75836236  0.51681651  0.30016228     0.11100
H1999       H  0.83751520  0.45509295  0.33766438     0.11200
H2000       H  0.81168635  0.49787357  0.36953214     0.13100
H2001       H  0.82879133  0.49221680  0.41475698     0.09600
H2002       H  0.86616848  0.49136441  0.44315671     0.11700
H2003       H  0.91559493  0.47397246  0.37773786     0.08300
H2004       H  0.87777069  0.47469804  0.34927105     0.11100
C2005       C  0.07927634  0.46947343  0.57266410    -0.03500
C2006       C  0.10478718  0.47145292  0.56330876    -0.06100
C2007       C  0.12586281  0.46848307  0.57988933    -0.21200
C2008       C  0.12230843  0.46338006  0.60639408     0.24500
C2009       C  0.09677383  0.46090574  0.61584211    -0.18800
C2010       C  0.07554523  0.46396702  0.59915482    -0.08700
C2011       C  0.14586359  0.46272215  0.62320275    -0.19000
C2012       C  0.14630817  0.45683437  0.64870733    -0.23800
C2013       C  0.16991112  0.46005538  0.66510915     0.26600
C2014       C  0.17231055  0.44567757  0.68813954    -0.20600
C2015       C  0.19217307  0.45104965  0.70581455    -0.10200
C2016       C  0.20990879  0.47109143  0.70093557    -0.10800
C2017       C  0.20825488  0.48469795  0.67745755    -0.03700
C2018       C  0.18862763  0.47919263  0.65967115    -0.18800
H2019       H  0.10859394  0.47558345  0.54308055     0.10300
H2020       H  0.14516300  0.47057800  0.57192723     0.10300
H2021       H  0.09294063  0.45715190  0.63608674     0.10000
H2022       H  0.05620694  0.46207444  0.60703593     0.11100
H2023       H  0.16400219  0.46789613  0.61389069     0.11200
H2024       H  0.12894738  0.44978227  0.65820941     0.13100
H2025       H  0.15807708  0.43104533  0.69302772     0.09600
H2026       H  0.19241635  0.44096770  0.72422145     0.11700
H2027       H  0.22102517  0.50094720  0.67374906     0.08300
H2028       H  0.18713445  0.49130079  0.64263578     0.11100
C2029       C  0.76431398  0.48360051  0.70278605    -0.03500
C2030       C  0.76150322  0.50046390  0.68168705    -0.06100
C2031       C  0.77835659  0.49880525  0.66038754    -0.21200
C2032       C  0.79856376  0.48057939  0.66007835     0.24500
C2033       C  0.79984061  0.46224679  0.68019494    -0.18800
C2034       C  0.78292210  0.46383404  0.70134954    -0.08700
C2035       C  0.81838723  0.48175630  0.63905115    -0.19000
C2036       C  0.84327394  0.47446362  0.64239482    -0.23800
C2037       C  0.86368011  0.47638993  0.62188978     0.26600
C2038       C  0.88990582  0.47570083  0.62901543    -0.20600
C2039       C  0.90959457  0.47667716  0.61020214    -0.10200
C2040       C  0.90347909  0.47817349  0.58373949    -0.10800
C2041       C  0.87719179  0.47896810  0.57671753    -0.03700
C2042       C  0.85761994  0.47795136  0.59543427    -0.18800
H2043       H  0.74790478  0.51638750  0.68273523     0.10300
H2044       H  0.77672982  0.51295741  0.64497643     0.10300
H2045       H  0.81453497  0.44733481  0.68018684     0.10000
H2046       H  0.78585008  0.45100489  0.71769943     0.11100
H2047       H  0.81262834  0.49081802  0.62103043     0.11200
H2048       H  0.84936403  0.46777312  0.66134834     0.13100
H2049       H  0.89519557  0.47434464  0.64924365     0.09600
H2050       H  0.92954977  0.47602622  0.61637748     0.11700
H2051       H  0.87156132  0.47995718  0.55657150     0.08300
H2052       H  0.83781261  0.47775636  0.58889337     0.11100
C2053       C  0.98217930  0.56653445  0.40794092    -0.03500
C2054       C  0.97509616  0.56133237  0.38221715    -0.06100
C2055       C  0.97351183  0.58141860  0.36412164    -0.21200
C2056       C  0.97930269  0.60701495  0.37122675     0.24500
C2057       C  0.98560781  0.61234838  0.39714112    -0.18800
C2058       C  0.98710420  0.59231875  0.41523915    -0.08700
C2059       C  0.97889732  0.62744207  0.35099617    -0.19000
C2060       C  0.99317860  0.64924792  0.35237626    -0.23800
C2061       C  0.99516810  0.66860203  0.33114725     0.26600
C2062       C  0.00501786  0.69327597  0.33687418    -0.20600
C2063       C  0.00837079  0.71173253  0.31734730    -0.10200
C2064       C  0.00211318  0.70583398  0.29154348    -0.10800
C2065       C  0.99234007  0.68111586  0.28576839    -0.03700
C2066       C  0.98897744  0.66266710  0.30529436    -0.18800
H2067       H  0.97076855  0.54175777  0.37603631     0.10300
H2068       H  0.96827228  0.57686316  0.34435052     0.10300
H2069       H  0.98921942  0.63192408  0.40365736     0.10000
H2070       H  0.99226717  0.59708855  0.43497050     0.11100
H2071       H  0.96747221  0.62351531  0.33390695     0.11200
H2072       H  0.00462348  0.65299226  0.36951642     0.13100
H2073       H  0.01025015  0.69827146  0.35654288     0.09600
H2074       H  0.01613569  0.73052638  0.32248014     0.11700
H2075       H  0.98753767  0.67585426  0.26607138     0.08300
H2076       H  0.98221025  0.64366381  0.29975258     0.11100
C2077       C  0.01172325  0.39052472  0.57234513    -0.03500
C2078       C  0.00929161  0.36401629  0.56669303    -0.06100
C2079       C  0.02421144  0.34575256  0.57981948    -0.21200
C2080       C  0.04212216  0.35359713  0.59856854     0.24500
C2081       C  0.04410587  0.38010901  0.60467221    -0.18800
C2082       C  0.02903881  0.39833703  0.59170447    -0.08700
C2083       C  0.05630532  0.33339391  0.61312998    -0.19000
C2084       C  0.07708178  0.33815226  0.62800198    -0.23800
C2085       C  0.08381688  0.32003128  0.64900306     0.26600
C2086       C  0.08580721  0.32988444  0.67418591    -0.20600
C2087       C  0.08320514  0.31335335  0.69545281    -0.10200
C2088       C  0.07884074  0.28672879  0.69166114    -0.10800
C2089       C  0.08096390  0.27652825  0.66646138    -0.03700
C2090       C  0.08325178  0.29310990  0.64522025    -0.18800
H2091       H  0.99623354  0.35743870  0.55173897     0.10300
H2092       H  0.02192109  0.32541525  0.57514090     0.10300
H2093       H  0.05690026  0.38698301  0.61965345     0.10000
H2094       H  0.03164883  0.41866234  0.59622718     0.11100
H2095       H  0.04762319  0.31420156  0.61355540     0.11200
H2096       H  0.08592334  0.35720387  0.62826774     0.13100
H2097       H  0.08655183  0.35061861  0.67742827     0.09600
H2098       H  0.08215635  0.32179448  0.71462461     0.11700
H2099       H  0.07842732  0.25599873  0.66291797     0.08300
H2100       H  0.08243764  0.28507872  0.62586352     0.11100
C2101       C  0.99067231  0.56265170  0.57984432    -0.03500
C2102       C  0.99976777  0.58752291  0.57363659    -0.06100
C2103       C  0.99919205  0.60716966  0.59202007    -0.21200
C2104       C  0.98901526  0.60254836  0.61675483     0.24500
C2105       C  0.98025377  0.57757755  0.62328813    -0.18800
C2106       C  0.98122102  0.55768870  0.60493590    -0.08700
C2107       C  0.98791865  0.62450909  0.63489616    -0.19000
C2108       C  0.96926077  0.62754715  0.65279014    -0.23800
C2109       C  0.96766981  0.65159307  0.66817720     0.26600
C2110       C  0.96065979  0.65038307  0.69436849    -0.20600
C2111       C  0.96169799  0.67266264  0.70971072    -0.10200
C2112       C  0.96924867  0.69654644  0.69886910    -0.10800
C2113       C  0.97453486  0.69796748  0.67222659    -0.03700
C2114       C  0.97375004  0.67571797  0.65702450    -0.18800
H2115       H  0.00736643  0.59182759  0.55452449     0.10300
H2116       H  0.00618554  0.62625743  0.58670150     0.10300
H2117       H  0.97285602  0.57335984  0.64247627     0.10000
H2118       H  0.97411373  0.53863167  0.61018105     0.11100
H2119       H  0.00210290  0.63980831  0.63206298     0.11200
H2120       H  0.95512408  0.61237704  0.65632315     0.13100
H2121       H  0.95547272  0.63202567  0.70317433     0.09600
H2122       H  0.95719131  0.67107377  0.73015382     0.11700
H2123       H  0.98021254  0.71608744  0.66324847     0.08300
H2124       H  0.97826906  0.67736847  0.63659045     0.11100
C2125       C  0.02259777  0.28487414  0.20268241    -0.03500
C2126       C  0.03955286  0.27756325  0.18256074    -0.06100
C2127       C  0.04366392  0.29408982  0.16111333    -0.21200
C2128       C  0.03126336  0.31837768  0.15956204     0.24500
C2129       C  0.01436592  0.32545317  0.17972763    -0.18800
C2130       C  0.01028822  0.30914827  0.20088685    -0.08700
C2131       C  0.03495562  0.33567904  0.13644456    -0.19000
C2132       C  0.03203037  0.36173359  0.13799942    -0.23800
C2133       C  0.03234354  0.38060195  0.11592931     0.26600
C2134       C  0.03201913  0.40718735  0.12192197    -0.20600
C2135       C  0.02981296  0.42600871  0.10252521    -0.10200
C2136       C  0.02776007  0.41888138  0.07635263    -0.10800
C2137       C  0.02881668  0.39223622  0.07015943    -0.03700
C2138       C  0.03102776  0.37330527  0.08968377    -0.18800
H2139       H  0.04928888  0.25900658  0.18318923     0.10300
H2140       H  0.05656145  0.28791946  0.14573288     0.10300
H2141       H  0.00355884  0.34337190  0.17902322     0.10000
H2142       H  0.99704383  0.31567115  0.21581053     0.11100
H2143       H  0.04016279  0.32674737  0.11814340     0.11200
H2144       H  0.02903431  0.37017965  0.15702038     0.13100
H2145       H  0.03296231  0.41351209  0.14189929     0.09600
H2146       H  0.02923238  0.44620449  0.10818125     0.11700
H2147       H  0.02740002  0.38592351  0.05022099     0.08300
H2148       H  0.03093818  0.35310478  0.08413027     0.11100
C2149       C  0.03825670  0.20872468  0.26136030    -0.03500
C2150       C  0.02785696  0.18434214  0.25547985    -0.06100
C2151       C  0.03123124  0.16342373  0.27242976    -0.21200
C2152       C  0.04462491  0.16663657  0.29581596     0.24500
C2153       C  0.05704076  0.19041148  0.30054471    -0.18800
C2154       C  0.05387152  0.21124170  0.28342044    -0.08700
C2155       C  0.04382489  0.14532983  0.31528974    -0.19000
C2156       C  0.04298111  0.14959123  0.34113993    -0.23800
C2157       C  0.03837652  0.12907916  0.36121543     0.26600
C2158       C  0.03832852  0.13623156  0.38752847    -0.20600
C2159       C  0.03337953  0.11794133  0.40705768    -0.10200
C2160       C  0.02835879  0.09192068  0.40077359    -0.10800
C2161       C  0.02830382  0.08477623  0.37446651    -0.03700
C2162       C  0.03320426  0.10300464  0.35499279    -0.18800
H2163       H  0.01492448  0.18215510  0.23918852     0.10300
H2164       H  0.02160315  0.14526154  0.26824812     0.10300
H2165       H  0.06813658  0.19334109  0.31801506     0.10000
H2166       H  0.06143294  0.23006744  0.28878373     0.11100
H2167       H  0.04138681  0.12596040  0.30768550     0.11200
H2168       H  0.04448304  0.16940786  0.34805394     0.13100
H2169       H  0.04209956  0.15612638  0.39304537     0.09600
H2170       H  0.03365986  0.12418129  0.42707330     0.11700
H2171       H  0.02442700  0.06495605  0.36878007     0.08300
H2172       H  0.03266948  0.09627941  0.33522924     0.11100
C2173       C  0.97220179  0.27102847  0.28218877    -0.03500
C2174       C  0.97147898  0.26026449  0.30724472    -0.06100
C2175       C  0.95963618  0.27364222  0.32753828    -0.21200
C2176       C  0.94837023  0.29789875  0.32308671     0.24500
C2177       C  0.94562611  0.30664968  0.29740796    -0.18800
C2178       C  0.95771529  0.29342914  0.27712525    -0.08700
C2179       C  0.94410722  0.31522923  0.34558566    -0.19000
C2180       C  0.94861236  0.34085443  0.34371199    -0.23800
C2181       C  0.95300354  0.35820790  0.36607984     0.26600
C2182       C  0.95056932  0.38494621  0.36209904    -0.20600
C2183       C  0.95770155  0.40245781  0.38131585    -0.10200
C2184       C  0.96761573  0.39364225  0.40503935    -0.10800
C2185       C  0.96973684  0.36678567  0.40925368    -0.03700
C2186       C  0.96261725  0.34919810  0.38990924    -0.18800
H2187       H  0.98191814  0.24264787  0.31171681     0.10300
H2188       H  0.96147112  0.26620023  0.34707192     0.10300
H2189       H  0.93571753  0.32460082  0.29314124     0.10000
H2190       H  0.95715796  0.30169719  0.25785050     0.11100
H2191       H  0.94146396  0.30639566  0.36450149     0.11200
H2192       H  0.95154620  0.34954178  0.32477780     0.13100
H2193       H  0.94349291  0.39235926  0.34381907     0.09600
H2194       H  0.95544342  0.42297334  0.37750786     0.11700
H2195       H  0.97734432  0.35936945  0.42729880     0.08300
H2196       H  0.96561189  0.32874301  0.39336825     0.11100
loop_ 
_geom_bond_atom_site_label_1 
_geom_bond_atom_site_label_2 
_geom_bond_distance 
_geom_bond_site_symmetry_2 
_ccdc_geom_bond_type 
C1            N2   1.362   1_455  A
C1            N6   1.372       .  A
C1         C2125   1.496       .  S
N2            C3   1.354       .  A
C3            N4   1.346   1_655  A
C3         C2173   1.477       .  S
N4            C5   1.351       .  A
C5            N6   1.369       .  A
C5         C2149   1.468       .  S
O7           C18   1.291       .  A
O7          Eu43   2.458       .  S
O8           C19   1.290       .  A
O8          Eu42   2.449       .  S
O9           C20   1.295       .  A
O9          Eu15   2.482       .  S
O10          C21   1.298       .  A
O10         Eu15   2.496   1_455  S
O11          C21   1.290       .  A
O11         Eu45   2.449       .  S
O12          C20   1.291       .  A
O12         Eu44   2.450       .  S
O13          C19   1.292       .  A
O13         Eu15   2.459       .  S
O14          C18   1.292       .  A
O14         Eu15   2.455       .  S
Eu15         O25   2.365   1_655  S
Eu15         O17   2.357       .  S
Eu15         O16   2.356   1_655  S
Eu15         O23   2.359       .  S
O16         Eu45   2.346       .  S
O16         Eu42   2.350   1_455  S
O17         Eu43   2.352       .  S
O17         Eu44   2.353       .  S
C18        C2184   1.482       .  S
C19        C2053   1.481       .  S
C20        C1992   1.490       .  S
C21        C1957   1.495       .  S
H22          O23   0.967       .  S
O23         Eu44   2.353       .  S
O23         Eu42   2.351       .  S
H24          O25   0.964       .  S
O25         Eu43   2.370   1_455  S
O25         Eu45   2.371       .  S
O26          C49   1.289       .  A
O26         Eu42   2.441       .  S
O27          C50   1.289       .  A
O27         Eu43   2.442       .  S
O28          C51   1.295       .  A
O28         Eu44   2.484       .  S
O29          C52   1.291       .  A
O29         Eu45   2.463       .  S
O30          C53   1.290       .  A
O30         Eu45   2.448       .  S
O31          C54   1.294       .  A
O31         Eu44   2.470       .  S
O32          C55   1.297       .  A
O32         Eu46   2.494       .  S
O33          C56   1.296       .  A
O33         Eu46   2.484   1_455  S
O34          C55   1.289       .  A
O34         Eu44   2.442       .  S
O35          C56   1.292       .  A
O35         Eu45   2.462       .  S
O36          C51   1.294       .  A
O36         Eu42   2.471       .  S
O37          C54   1.299       .  A
O37         Eu43   2.500       .  S
O38          C53   1.300       .  A
O38         Eu43   2.515   1_455  S
O39          C52   1.295       .  A
O39         Eu42   2.478   1_455  S
O40          C49   1.290       .  A
O40         Eu46   2.449       .  S
O41          C50   1.291       .  A
O41         Eu46   2.453       .  S
Eu42         O60   2.356   1_655  S
Eu42         O48   2.354       .  S
Eu43         O47   2.340   1_655  S
Eu43         O58   2.375       .  S
Eu44         O58   2.370       .  S
Eu44         O48   2.345       .  S
Eu45         O47   2.332       .  S
Eu45         O60   2.357       .  S
Eu46         O47   2.341   1_655  S
Eu46         O58   2.364       .  S
Eu46         O60   2.367   1_655  S
Eu46         O48   2.353       .  S
C49        C2101   1.470       .  S
C50        C2077   1.475   1_655  S
C51        C1933   1.498       .  S
C52        C1872   1.495       .  S
C53        C1909   1.499       .  S
C54        C1885   1.503       .  S
C55        C2040   1.493       .  S
C56        C2005   1.496       .  S
H57          O58   0.962       .  S
H59          O60   0.967       .  S
C61          N62   1.372       .  A
C61          N66   1.354       .  A
C61        C1813   1.476       .  S
N62          C63   1.373       .  A
C63          N64   1.358       .  A
C63        C1837   1.494       .  S
N64          C65   1.353       .  A
C65          N66   1.350       .  A
C65        C2112   1.475       .  S
C67          N68   1.375       .  A
C67          N72   1.360       .  A
C67        C1776   1.500       .  S
N68          C69   1.373       .  A
C69          N70   1.353       .  A
C69        C1789   1.482       .  S
N70          C71   1.350       .  A
C71          N72   1.353       .  A
C71        C2088   1.479       .  S
C73          N74   1.357       .  A
C73          N78   1.369       .  A
C73        C1717   1.475       .  S
N74          C75   1.353       .  A
C75          N76   1.351       .  A
C75        C2064   1.480       .  S
N76          C77   1.356       .  A
C77          N78   1.369       .  A
C77        C1741   1.482       .  S
O79          C90   1.291       .  A
O79        Eu115   2.452       .  S
O80          C91   1.294       .  A
O80        Eu114   2.475       .  S
O81          C92   1.290       .  A
O81         Eu87   2.452   1_655  S
O82          C93   1.288       .  A
O82         Eu87   2.436       .  S
O83          C93   1.289       .  A
O83        Eu117   2.439       .  S
O84          C92   1.289       .  A
O84        Eu116   2.439       .  S
O85          C91   1.297       .  A
O85         Eu87   2.490       .  S
O86          C90   1.296       .  A
O86         Eu87   2.483       .  S
Eu87         O97   2.370       .  S
Eu87         O89   2.351   1_455  S
Eu87         O88   2.339       .  S
Eu87         O95   2.359   1_455  S
O88        Eu117   2.345       .  S
O88        Eu114   2.329       .  S
O89        Eu115   2.347   1_655  S
O89        Eu116   2.349       .  S
C90        C2160   1.491       .  S
C91        C1800   1.502       .  S
C92        C1669   1.477       .  S
C93        C1693   1.473       .  S
H94          O95   0.966       .  S
O95        Eu116   2.361       .  S
O95        Eu114   2.366   1_655  S
H96          O97   0.966       .  S
O97        Eu115   2.366       .  S
O97        Eu117   2.365       .  S
O98         C121   1.293       .  A
O98        Eu114   2.471   1_565  S
O99         C122   1.292       .  A
O99        Eu115   2.457   1_565  S
O100        C123   1.295       .  A
O100       Eu116   2.477       .  S
O101        C124   1.295       .  A
O101       Eu117   2.478       .  S
O102        C125   1.296       .  A
O102       Eu117   2.488       .  S
O103        C126   1.296       .  A
O103       Eu116   2.490       .  S
O104        C127   1.290       .  A
O104       Eu118   2.446   1_655  S
O105        C128   1.293       .  A
O105       Eu118   2.464       .  S
O106        C127   1.289       .  A
O106       Eu116   2.436   1_565  S
O107        C128   1.293       .  A
O107       Eu117   2.467   1_565  S
O108        C123   1.289       .  A
O108       Eu114   2.447   1_655  S
O109        C126   1.294       .  A
O109       Eu115   2.478   1_655  S
O110        C125   1.291       .  A
O110       Eu115   2.451       .  S
O111        C124   1.291       .  A
O111       Eu114   2.454       .  S
O112        C121   1.298       .  A
O112       Eu118   2.490       .  S
O113        C122   1.297       .  A
O113       Eu118   2.488       .  S
Eu114       O132   2.363   1_545  S
Eu114       O120   2.352   1_445  S
Eu115       O119   2.363   1_545  S
Eu115       O130   2.348   1_445  S
Eu116       O130   2.349   1_545  S
Eu116       O120   2.358   1_545  S
Eu117       O119   2.353   1_545  S
Eu117       O132   2.357   1_545  S
Eu118       O119   2.357       .  S
Eu118       O130   2.358   1_455  S
Eu118       O132   2.353       .  S
Eu118       O120   2.360   1_455  S
C121       C1848   1.501       .  S
C122       C1752   1.494       .  S
C123       C1525   1.479       .  S
C124       C1549   1.490       .  S
C125       C1584   1.494       .  S
C126       C1608   1.500       .  S
C127       C1656   1.473       .  S
C128       C1621   1.490       .  S
H129        O130   0.964       .  S
H131        O132   0.965       .  S
C133        N134   1.373       .  A
C133        N138   1.353       .  A
C133       C1920   1.480       .  S
N134        C135   1.374       .  A
C135        N136   1.359       .  A
C135       C1512   1.501       .  S
N136        C137   1.353       .  A
C137        N138   1.351       .  A
C137       C1704   1.479       .  S
C139        N140   1.360       .  A
C139        N144   1.373       .  A
C139       C1488   1.492       .  S
N140        C141   1.354       .  A
C141        N142   1.350       .  A
C141       C1680   1.477       .  S
N142        C143   1.353       .  A
C143        N144   1.371       .  A
C143       C1896   1.478       .  S
C145        N146   1.357       .  A
C145        N150   1.369       .  A
C145       C1453   1.477       .  S
N146        C147   1.352       .  A
C147        N148   1.350       .  A
C147       C1645   1.475       .  S
N148        C149   1.354       .  A
C149        N150   1.368       .  A
C149       C1944   1.476       .  S
C151        N152   1.357       .  A
C151        N156   1.371       .  A
C151       C1861   1.484       .  S
N152        C153   1.352       .  A
C153        N154   1.352       .  A
C153       C1632   1.481       .  S
N154        C155   1.356       .  A
C155        N156   1.372       .  A
C155       C1440   1.480       .  S
C157        N158   1.353       .  A
C157        N162   1.371       .  A
C157       C1381   1.478       .  S
N158        C159   1.352       .  A
C159        N160   1.354       .  A
C159       C1405   1.476       .  S
N160        C161   1.357       .  A
C161        N162   1.372       .  A
C161       C1597   1.481       .  S
O163        C174   1.291       .  A
O163       Eu199   2.455       .  S
O164        C175   1.291       .  A
O164       Eu198   2.457       .  S
O165        C176   1.295       .  A
O165       Eu171   2.478       .  S
O166        C177   1.294       .  A
O166       Eu171   2.472       .  S
O167        C177   1.288       .  A
O167       Eu201   2.427       .  S
O168        C176   1.289       .  A
O168       Eu200   2.439       .  S
O169        C175   1.296       .  A
O169       Eu171   2.489       .  S
O170        C174   1.299       .  A
O170       Eu171   2.499   1_545  S
Eu171       O181   2.373   1_565  S
Eu171       O173   2.362       .  S
Eu171       O172   2.355       .  S
Eu171       O179   2.356       .  S
O172       Eu201   2.349       .  S
O172       Eu198   2.338       .  S
O173       Eu199   2.358   1_565  S
O173       Eu200   2.364       .  S
C174       C1501   1.497       .  S
C175       C1429   1.489       .  S
C176       C1309   1.483       .  S
C177       C1357   1.479       .  S
H178        O179   0.964       .  S
O179       Eu200   2.355       .  S
O179       Eu198   2.345       .  S
H180        O181   0.968       .  S
O181       Eu199   2.362       .  S
O181       Eu201   2.372   1_545  S
O182        C205   1.289       .  A
O182       Eu198   2.446       .  S
O183        C206   1.294       .  A
O183       Eu199   2.477       .  S
O184        C207   1.296       .  A
O184       Eu200   2.489       .  S
O185        C208   1.297       .  A
O185       Eu201   2.491       .  S
O186        C209   1.296       .  A
O186       Eu201   2.490   1_545  S
O187        C210   1.296       .  A
O187       Eu200   2.490   1_545  S
O188        C211   1.288       .  A
O188       Eu202   2.436       .  S
O189        C212   1.289       .  A
O189       Eu202   2.440       .  S
O190        C211   1.290       .  A
O190       Eu200   2.450       .  S
O191        C212   1.292       .  A
O191       Eu201   2.460       .  S
O192        C207   1.289       .  A
O192       Eu198   2.446       .  S
O193        C210   1.288       .  A
O193       Eu199   2.437       .  S
O194        C209   1.291       .  A
O194       Eu199   2.453       .  S
O195        C208   1.289       .  A
O195       Eu198   2.447       .  S
O196        C205   1.294       .  A
O196       Eu202   2.473       .  S
O197        C206   1.294       .  A
O197       Eu202   2.475   1_545  S
Eu198       O216   2.362       .  S
Eu198       O204   2.348       .  S
Eu199       O203   2.335       .  S
Eu199       O214   2.351       .  S
Eu200       O214   2.352   1_565  S
Eu200       O204   2.355       .  S
Eu201       O203   2.338   1_565  S
Eu201       O216   2.363       .  S
Eu202       O203   2.340   1_565  S
Eu202       O214   2.356   1_565  S
Eu202       O216   2.361       .  S
Eu202       O204   2.349       .  S
C205       C1464   1.487       .  S
C206       C1477   1.485       .  S
C207       C1248   1.482       .  S
C208       C1296   1.492       .  S
C209       C1261   1.491       .  S
C210       C1213   1.490       .  S
C211       C1416   1.470       .  S
C212       C1333   1.481   1_565  S
H213        O214   0.965       .  S
H215        O216   0.968       .  S
C217        N218   1.368       .  A
C217        N222   1.355       .  A
C217       C1200   1.475   1_565  S
N218        C219   1.369       .  A
C219        N220   1.357       .  A
C219       C1560   1.479       .  S
N220        C221   1.352       .  A
C221        N222   1.353       .  A
C221       C1368   1.479       .  S
C223        N224   1.373       .  A
C223        N228   1.354       .  A
C223       C1176   1.477       .  S
N224        C225   1.374       .  A
C225        N226   1.356       .  A
C225       C1536   1.493       .  S
N226        C227   1.348       .  A
C227        N228   1.349       .  A
C227       C1344   1.475       .  S
C229        N230   1.355       .  A
C229        N234   1.373       .  A
C229       C1141   1.495       .  S
N230        C231   1.348       .  A
C231        N232   1.352       .  A
C231       C1320   1.477       .  S
N232        C233   1.357       .  A
C233        N234   1.373       .  A
C233       C1573   1.479       .  S
O235        C246   1.291       .  A
O235       Eu271   2.454   1_564  S
O236        C247   1.292       .  A
O236       Eu270   2.461   1_554  S
O237        C248   1.290       .  A
O237       Eu243   2.444       .  S
O238        C249   1.293       .  A
O238       Eu243   2.468   1_565  S
O239        C249   1.287       .  A
O239       Eu273   2.428   1_554  S
O240        C248   1.292       .  A
O240       Eu272   2.455   1_554  S
O241        C247   1.297       .  A
O241       Eu243   2.488       .  S
O242        C246   1.298       .  A
O242       Eu243   2.503   1_565  S
Eu243       O253   2.360   1_545  S
Eu243       O245   2.344       .  S
Eu243       O244   2.348   1_545  S
Eu243       O251   2.380       .  S
O244       Eu273   2.347   1_554  S
O244       Eu270   2.350   1_564  S
O245       Eu271   2.337   1_554  S
O245       Eu272   2.347   1_554  S
C246       C1392   1.495   1_565  S
C247       C1152   1.496       .  S
C248       C1128   1.479       .  S
C249       C1104   1.477       .  S
H250        O251   0.962       .  S
O251       Eu272   2.357   1_554  S
O251       Eu270   2.361   1_554  S
H252        O253   0.967       .  S
O253       Eu271   2.364   1_564  S
O253       Eu273   2.365   1_554  S
O254        C277   1.293       .  A
O254       Eu270   2.466       .  S
O255        C278   1.293   1_565  A
O255       Eu271   2.465   1_565  S
O256        C279   1.299       .  A
O256       Eu272   2.509       .  S
O257        C280   1.298       .  A
O257       Eu273   2.502       .  S
O258        C281   1.297       .  A
O258       Eu273   2.491       .  S
O259        C282   1.294       .  A
O259       Eu272   2.477       .  S
O260        C283   1.292       .  A
O260       Eu274   2.457       .  S
O261        C284   1.292       .  A
O261       Eu274   2.462   1_565  S
O262        C283   1.289       .  A
O262       Eu272   2.436       .  S
O263        C284   1.289       .  A
O263       Eu273   2.439       .  S
O264        C279   1.289       .  A
O264       Eu270   2.445       .  S
O265        C282   1.293       .  A
O265       Eu271   2.466       .  S
O266        C281   1.288       .  A
O266       Eu271   2.437   1_565  S
O267        C280   1.290       .  A
O267       Eu270   2.447   1_565  S
O268        C277   1.296       .  A
O268       Eu274   2.490       .  S
O269        C278   1.296       .  A
O269       Eu274   2.484       .  S
Eu270       O288   2.352   1_545  S
Eu270       O276   2.351       .  S
Eu271       O275   2.355   1_545  S
Eu271       O286   2.338       .  S
Eu272       O286   2.368       .  S
Eu272       O276   2.355       .  S
Eu273       O275   2.353       .  S
Eu273       O288   2.353       .  S
Eu274       O275   2.356   1_545  S
Eu274       O286   2.360       .  S
Eu274       O288   2.358   1_545  S
Eu274       O276   2.367       .  S
C277       C1189   1.499       .  S
C278       C1165   1.497   1_545  S
C279       C1021   1.500       .  S
C280        C973   1.491       .  S
C281       C1008   1.488       .  S
C282        C960   1.490       .  S
C283       C1056   1.472       .  S
C284       C1069   1.478       .  S
H285        O286   0.966       .  S
H287        O288   0.967       .  S
C289        N290   1.355       .  A
C289        N294   1.366       .  A
C289       C1224   1.470       .  S
N290        C291   1.352       .  A
C291        N292   1.353       .  A
C291       C1117   1.479       .  S
N292        C293   1.357       .  A
C293        N294   1.367       .  A
C293        C925   1.479       .  S
C295        N296   1.366       .  A
C295        N300   1.355       .  A
C295        C901   1.476       .  S
N296        C297   1.366       .  A
C297        N298   1.357       .  A
C297       C1237   1.472       .  S
N298        C299   1.353       .  A
C299        N300   1.353       .  A
C299       C1093   1.477       .  S
C301        N302   1.373       .  A
C301        N306   1.357       .  A
C301        C888   1.486       .  S
N302        C303   1.373       .  A
C303        N304   1.355       .  A
C303       C1285   1.480       .  S
N304        C305   1.349       .  A
C305        N306   1.349       .  A
C305       C1080   1.474       .  S
C307        N308   1.359       .  A
C307        N312   1.371       .  A
C307       C1272   1.482       .  S
N308        C309   1.353       .  A
C309        N310   1.350       .  A
C309       C1045   1.477       .  S
N310        C311   1.351       .  A
C311        N312   1.368       .  A
C311        C853   1.474       .  S
O313        C324   1.292       .  A
O313       Eu349   2.467   1_554  S
O314        C325   1.290       .  A
O314       Eu348   2.448   1_554  S
O315        C326   1.291       .  A
O315       Eu321   2.450       .  S
O316        C327   1.290       .  A
O316       Eu321   2.451   1_655  S
O317        C327   1.292       .  A
O317       Eu351   2.456   1_554  S
O318        C326   1.291       .  A
O318       Eu350   2.455   1_554  S
O319        C325   1.295       .  A
O319       Eu321   2.486       .  S
O320        C324   1.297       .  A
O320       Eu321   2.487       .  S
Eu321       O331   2.357   1_455  S
Eu321       O323   2.360       .  S
Eu321       O322   2.360   1_455  S
Eu321       O329   2.351       .  S
O322       Eu351   2.355   1_554  S
O322       Eu348   2.348   1_654  S
O323       Eu349   2.363   1_554  S
O323       Eu350   2.366   1_554  S
C324       C2136   1.498       .  S
C325       C1728   1.484       .  S
C326        C816   1.475       .  S
C327        C829   1.478       .  S
H328        O329   0.965       .  S
O329       Eu350   2.355   1_554  S
O329       Eu348   2.343   1_554  S
H330        O331   0.965       .  S
O331       Eu349   2.358   1_654  S
O331       Eu351   2.363   1_554  S
O332        C355   1.288       .  A
O332       Eu348   2.442       .  S
O333        C356   1.295       .  A
O333       Eu349   2.480       .  S
O334        C357   1.300       .  A
O334       Eu350   2.514       .  S
O335        C358   1.297       .  A
O335       Eu351   2.487       .  S
O336        C359   1.295       .  A
O336       Eu351   2.481       .  S
O337        C360   1.299       .  A
O337       Eu350   2.504       .  S
O338        C361   1.288       .  A
O338       Eu352   2.434       .  S
O339        C362   1.290       .  A
O339       Eu352   2.447   1_655  S
O340        C361   1.291       .  A
O340       Eu350   2.456       .  S
O341        C362   1.292       .  A
O341       Eu351   2.458       .  S
O342        C357   1.289       .  A
O342       Eu348   2.445       .  S
O343        C360   1.290       .  A
O343       Eu349   2.450       .  S
O344        C359   1.293       .  A
O344       Eu349   2.467   1_655  S
O345        C358   1.291       .  A
O345       Eu348   2.458   1_655  S
O346        C355   1.299       .  A
O346       Eu352   2.506       .  S
O347        C356   1.295       .  A
O347       Eu352   2.478       .  S
Eu348       O366   2.348   1_455  S
Eu348       O354   2.347       .  S
Eu349       O353   2.353   1_455  S
Eu349       O364   2.365       .  S
Eu350       O364   2.368       .  S
Eu350       O354   2.356       .  S
Eu351       O353   2.357       .  S
Eu351       O366   2.358       .  S
Eu352       O353   2.356   1_455  S
Eu352       O364   2.364       .  S
Eu352       O366   2.352   1_455  S
Eu352       O354   2.347       .  S
C355       C1824   1.496       .  S
C356       C1765   1.499       .  S
C357        C709   1.500       .  S
C358        C672   1.495       .  S
C359        C685   1.493   1_556  S
C360        C733   1.499       .  S
C361        C781   1.473       .  S
C362        C757   1.480       .  S
H363        O364   0.963       .  S
H365        O366   0.967       .  S
C367        N368   1.369       .  A
C367        N372   1.352       .  A
C367       C1981   1.473       .  S
N368        C369   1.372       .  A
C369        N370   1.361       .  A
C369        C648   1.489       .  S
N370        C371   1.355       .  A
C371        N372   1.349       .  A
C371        C840   1.479       .  S
C373        N374   1.368       .  A
C373        N378   1.352       .  A
C373        C613   1.474       .  S
N374        C375   1.371       .  A
C375        N376   1.360       .  A
C375       C1968   1.488       .  S
N376        C377   1.353       .  A
C377        N378   1.350       .  A
C377        C805   1.477       .  S
C379        N380   1.353       .  A
C379        N384   1.370       .  A
C379        C600   1.476       .  S
N380        C381   1.351       .  A
C381        N382   1.353       .  A
C381        C792   1.477       .  S
N382        C383   1.356       .  A
C383        N384   1.370       .  A
C383       C2016   1.477       .  S
C385        N386   1.368       .  A
C385        N390   1.351       .  A
C385       C2029   1.469       .  S
N386        C387   1.371       .  A
C387        N388   1.361       .  A
C387        C565   1.489       .  S
N388        C389   1.353       .  A
C389        N390   1.348       .  A
C389        C768   1.476       .  S
C391        N392   1.375   1_554  A
C391        N396   1.354       .  A
C391        C744   1.480   1_554  S
N392        C393   1.376   1_556  A
C393        N394   1.358       .  A
C393       C1032   1.502       .  S
N394        C395   1.351       .  A
C395        N396   1.349       .  A
C395        C541   1.479       .  S
O397        C408   1.293       .  A
O397       Eu433   2.461       .  S
O398        C409   1.289       .  A
O398       Eu432   2.438       .  S
O399        C410   1.291       .  A
O399       Eu405   2.452   1_554  S
O400        C411   1.293       .  A
O400       Eu405   2.475       .  S
O401        C411   1.288       .  A
O401       Eu435   2.433       .  S
O402        C410   1.292       .  A
O402       Eu434   2.461   1_554  S
O403        C409   1.297       .  A
O403       Eu405   2.492       .  S
O404        C408   1.294       .  A
O404       Eu405   2.479   1_554  S
Eu405       O415   2.360   1_556  S
Eu405       O407   2.347   1_556  S
Eu405       O406   2.360       .  S
Eu405       O413   2.372       .  S
O406       Eu435   2.354       .  S
O406       Eu432   2.357       .  S
O407       Eu433   2.340       .  S
O407       Eu434   2.348   1_554  S
C408        C936   1.490       .  S
C409        C864   1.488       .  S
C410        C552   1.485       .  S
C411        C480   1.469   1_556  S
H412        O413   0.965       .  S
O413       Eu434   2.364       .  S
O413       Eu432   2.370       .  S
H414        O415   0.965       .  S
O415       Eu433   2.354       .  S
O415       Eu435   2.357   1_554  S
O416        C439   1.294       .  A
O416       Eu432   2.476       .  S
O417        C440   1.292       .  A
O417       Eu433   2.463       .  S
O418        C441   1.298       .  A
O418       Eu434   2.500       .  S
O419        C442   1.297       .  A
O419       Eu435   2.489       .  S
O420        C443   1.295       .  A
O420       Eu435   2.487   1_554  S
O421        C444   1.295       .  A
O421       Eu434   2.478   1_554  S
O422        C445   1.288       .  A
O422       Eu436   2.429       .  S
O423        C446   1.289       .  A
O423       Eu436   2.438       .  S
O424        C445   1.292       .  A
O424       Eu434   2.463       .  S
O425        C446   1.290       .  A
O425       Eu435   2.444       .  S
O426        C441   1.288       .  A
O426       Eu432   2.434       .  S
O427        C444   1.293       .  A
O427       Eu433   2.465       .  S
O428        C443   1.293       .  A
O428       Eu433   2.467       .  S
O429        C442   1.290       .  A
O429       Eu432   2.452       .  S
O430        C439   1.296       .  A
O430       Eu436   2.485       .  S
O431        C440   1.295       .  A
O431       Eu436   2.481   1_554  S
Eu432       O450   2.347       .  S
Eu432       O438   2.348       .  S
Eu433       O437   2.350       .  S
Eu433       O448   2.350       .  S
Eu434       O448   2.360   1_556  S
Eu434       O438   2.357       .  S
Eu435       O437   2.357   1_556  S
Eu435       O450   2.355       .  S
Eu436       O437   2.353   1_556  S
Eu436       O448   2.351   1_556  S
Eu436       O450   2.351       .  S
Eu436       O438   2.354       .  S
C439        C877   1.500       .  S
C440        C912   1.490       .  S
C441        C589   1.491       .  S
C442        C576   1.492       .  S
C443        C637   1.487       .  S
C444        C624   1.492       .  S
C445        C493   1.476       .  S
C446        C517   1.472       .  S
H447        O448   0.965       .  S
H449        O450   0.966       .  S
C451        N452   1.354       .  A
C451        N456   1.370       .  A
C451        C997   1.475       .  S
N452        C453   1.348       .  A
C453        N454   1.352       .  A
C453        C528   1.475       .  S
N454        C455   1.358       .  A
C455        N456   1.371       .  A
C455        C661   1.488       .  S
C457        N458   1.357   1_556  A
C457        N462   1.372       .  A
C457        C984   1.481       .  S
N458        C459   1.352       .  A
C459        N460   1.352   1_554  A
C459        C504   1.476       .  S
N460        C461   1.353       .  A
C461        N462   1.370       .  A
C461        C720   1.479       .  S
C463        N464   1.359       .  A
C463        N468   1.371       .  A
C463        C696   1.480       .  S
N464        C465   1.355       .  A
C465        N466   1.351       .  A
C465        C469   1.478       .  S
N466        C467   1.354       .  A
C467        N468   1.369       .  A
C467        C949   1.480       .  S
C469        C470   1.408       .  A
C469        C474   1.404       .  A
C470        C471   1.397       .  A
C470        H483   1.083       .  S
C471        C472   1.399       .  A
C471        H484   1.083       .  S
C472        C473   1.406       .  A
C472        C475   1.478       .  S
C473        C474   1.395       .  A
C473        H485   1.083       .  S
C474        H486   1.083       .  S
C475        C476   1.347       .  D
C475        H487   1.084       .  S
C476        C477   1.483       .  S
C476        H488   1.088       .  S
C477        C478   1.404   1_554  A
C477        C482   1.409       .  A
C478        C479   1.393       .  A
C478        H489   1.084       .  S
C479        C480   1.401   1_556  A
C479        H490   1.084       .  S
C480        C481   1.404       .  A
C481        C482   1.401       .  A
C481        H491   1.083       .  S
C482        H492   1.081       .  S
C493        C494   1.404       .  A
C493        C498   1.407   1_556  A
C494        C495   1.397       .  A
C494        H507   1.083       .  S
C495        C496   1.404   1_556  A
C495        H508   1.083       .  S
C496        C497   1.404       .  A
C496        C499   1.477       .  S
C497        C498   1.390       .  A
C497        H509   1.081       .  S
C498        H510   1.083       .  S
C499        C500   1.347       .  D
C499        H511   1.085   1_554  S
C500        C501   1.476       .  S
C500        H512   1.084       .  S
C501        C502   1.402       .  A
C501        C506   1.404       .  A
C502        C503   1.397       .  A
C502        H513   1.084       .  S
C503        C504   1.406       .  A
C503        H514   1.083       .  S
C504        C505   1.404       .  A
C505        C506   1.391       .  A
C505        H515   1.083       .  S
C506        H516   1.082       .  S
C517        C518   1.404   1_556  A
C517        C522   1.405       .  A
C518        C519   1.393       .  A
C518        H531   1.083       .  S
C519        C520   1.402   1_554  A
C519        H532   1.084       .  S
C520        C521   1.406       .  A
C520        C523   1.476       .  S
C521        C522   1.392       .  A
C521        H533   1.081       .  S
C522        H534   1.083       .  S
C523        C524   1.344       .  D
C523        H535   1.086   1_556  S
C524        C525   1.473       .  S
C524        H536   1.084       .  S
C525        C526   1.399       .  A
C525        C530   1.405       .  A
C526        C527   1.395       .  A
C526        H537   1.084       .  S
C527        C528   1.407       .  A
C527        H538   1.083       .  S
C528        C529   1.404       .  A
C529        C530   1.393       .  A
C529        H539   1.083       .  S
C530        H540   1.082       .  S
C541        C542   1.407       .  A
C541        C546   1.406       .  A
C542        C543   1.396       .  A
C542        H555   1.083       .  S
C543        C544   1.401       .  A
C543        H556   1.083       .  S
C544        C545   1.405       .  A
C544        C547   1.480       .  S
C545        C546   1.395       .  A
C545        H557   1.083       .  S
C546        H558   1.083       .  S
C547        C548   1.349       .  D
C547        H559   1.084       .  S
C548        C549   1.486       .  S
C548        H560   1.087       .  S
C549        C550   1.404       .  A
C549        C554   1.407       .  A
C550        C551   1.397       .  A
C550        H561   1.084       .  S
C551        C552   1.407       .  A
C551        H562   1.083       .  S
C552        C553   1.407       .  A
C553        C554   1.398       .  A
C553        H563   1.083       .  S
C554        H564   1.080       .  S
C565        C566   1.407       .  A
C565        C570   1.407       .  A
C566        C567   1.410       .  A
C566        H579   1.083       .  S
C567        C568   1.408       .  A
C567        H580   1.083       .  S
C568        C569   1.405       .  A
C568        C571   1.496       .  S
C569        C570   1.394       .  A
C569        H581   1.082       .  S
C570        H582   1.083       .  S
C571        C572   1.353       .  D
C571        H583   1.084       .  S
C572        C573   1.495       .  S
C572        H584   1.086       .  S
C573        C574   1.406       .  A
C573        C578   1.408       .  A
C574        C575   1.398       .  A
C574        H585   1.083       .  S
C575        C576   1.403       .  A
C575        H586   1.083       .  S
C576        C577   1.412       .  A
C577        C578   1.406       .  A
C577        H587   1.083       .  S
C578        H588   1.081       .  S
C589        C590   1.409       .  A
C589        C594   1.407       .  A
C590        C591   1.394       .  A
C590        H603   1.083       .  S
C591        C592   1.401       .  A
C591        H604   1.084       .  S
C592        C593   1.411       .  A
C592        C595   1.493       .  S
C593        C594   1.408       .  A
C593        H605   1.081       .  S
C594        H606   1.083       .  S
C595        C596   1.350       .  D
C595        H607   1.084       .  S
C596        C597   1.498       .  S
C596        H608   1.085       .  S
C597        C598   1.408       .  A
C597        C602   1.409       .  A
C598        C599   1.405       .  A
C598        H609   1.083       .  S
C599        C600   1.403       .  A
C599        H610   1.083       .  S
C600        C601   1.404       .  A
C601        C602   1.399       .  A
C601        H611   1.084       .  S
C602        H612   1.081       .  S
C613        C614   1.403       .  A
C613        C618   1.404       .  A
C614        C615   1.406       .  A
C614        H627   1.083       .  S
C615        C616   1.408       .  A
C615        H628   1.083       .  S
C616        C617   1.407       .  A
C616        C619   1.496       .  S
C617        C618   1.399       .  A
C617        H629   1.082       .  S
C618        H630   1.084       .  S
C619        C620   1.354       .  D
C619        H631   1.085       .  S
C620        C621   1.495       .  S
C620        H632   1.085       .  S
C621        C622   1.407       .  A
C621        C626   1.407       .  A
C622        C623   1.402       .  A
C622        H633   1.083       .  S
C623        C624   1.406       .  A
C623        H634   1.083       .  S
C624        C625   1.409       .  A
C625        C626   1.402       .  A
C625        H635   1.083       .  S
C626        H636   1.081       .  S
C637        C638   1.403       .  A
C637        C642   1.409       .  A
C638        C639   1.398       .  A
C638        H651   1.083       .  S
C639        C640   1.403       .  A
C639        H652   1.083       .  S
C640        C641   1.411       .  A
C640        C643   1.494       .  S
C641        C642   1.411       .  A
C641        H653   1.083       .  S
C642        H654   1.083       .  S
C643        C644   1.351       .  D
C643        H655   1.086       .  S
C644        C645   1.500       .  S
C644        H656   1.086       .  S
C645        C646   1.409       .  A
C645        C650   1.407       .  A
C646        C647   1.410       .  A
C646        H657   1.083       .  S
C647        C648   1.406       .  A
C647        H658   1.083       .  S
C648        C649   1.406       .  A
C649        C650   1.399       .  A
C649        H659   1.083       .  S
C650        H660   1.082       .  S
C661        C662   1.407       .  A
C661        C666   1.407       .  A
C662        C663   1.411       .  A
C662        H675   1.083   1_556  S
C663        C664   1.410       .  A
C663        H676   1.083   1_556  S
C664        C665   1.404       .  A
C664        C667   1.496       .  S
C665        C666   1.394       .  A
C665        H677   1.083       .  S
C666        H678   1.083       .  S
C667        C668   1.355       .  D
C667        H679   1.085       .  S
C668        C669   1.496       .  S
C668        H680   1.086       .  S
C669        C670   1.407       .  A
C669        C674   1.407       .  A
C670        C671   1.405       .  A
C670        H681   1.081       .  S
C671        C672   1.412       .  A
C671        H682   1.083       .  S
C672        C673   1.405       .  A
C673        C674   1.401       .  A
C673        H683   1.083   1_556  S
C674        H684   1.083   1_556  S
C685        C686   1.409       .  A
C685        C690   1.408   1_554  A
C686        C687   1.401       .  A
C686        H699   1.083       .  S
C687        C688   1.403       .  A
C687        H700   1.083       .  S
C688        C689   1.407       .  A
C688        C691   1.491       .  S
C689        C690   1.405   1_554  A
C689        H701   1.083   1_554  S
C690        H702   1.083       .  S
C691        C692   1.350       .  D
C691        H703   1.086       .  S
C692        C693   1.495       .  S
C692        H704   1.087   1_554  S
C693        C694   1.408   1_554  A
C693        C698   1.407       .  A
C694        C695   1.406       .  A
C694        H705   1.083       .  S
C695        C696   1.403   1_556  A
C695        H706   1.083       .  S
C696        C697   1.405       .  A
C697        C698   1.401       .  A
C697        H707   1.083       .  S
C698        H708   1.082       .  S
C709        C710   1.411       .  A
C709        C714   1.408       .  A
C710        C711   1.399       .  A
C710        H723   1.083       .  S
C711        C712   1.402       .  A
C711        H724   1.084       .  S
C712        C713   1.412       .  A
C712        C715   1.499       .  S
C713        C714   1.412       .  A
C713        H725   1.082       .  S
C714        H726   1.083       .  S
C715        C716   1.352       .  D
C715        H727   1.084       .  S
C716        C717   1.504       .  S
C716        H728   1.086       .  S
C717        C718   1.407       .  A
C717        C722   1.412       .  A
C718        C719   1.404       .  A
C718        H729   1.083       .  S
C719        C720   1.404       .  A
C719        H730   1.083       .  S
C720        C721   1.404       .  A
C721        C722   1.406       .  A
C721        H731   1.083   1_556  S
C722        H732   1.080   1_556  S
C733        C734   1.407       .  A
C733        C738   1.411       .  A
C734        C735   1.407       .  A
C734        H747   1.083       .  S
C735        C736   1.409       .  A
C735        H748   1.083       .  S
C736        C737   1.407       .  A
C736        C739   1.501       .  S
C737        C738   1.401       .  A
C737        H749   1.081       .  S
C738        H750   1.083       .  S
C739        C740   1.357       .  D
C739        H751   1.085       .  S
C740        C741   1.499       .  S
C740        H752   1.084       .  S
C741        C742   1.409       .  A
C741        C746   1.407       .  A
C742        C743   1.407       .  A
C742        H753   1.083       .  S
C743        C744   1.403       .  A
C743        H754   1.083       .  S
C744        C745   1.407       .  A
C745        C746   1.402       .  A
C745        H755   1.084       .  S
C746        H756   1.082       .  S
C757        C758   1.406       .  A
C757        C762   1.407       .  A
C758        C759   1.395       .  A
C758        H771   1.083       .  S
C759        C760   1.401       .  A
C759        H772   1.084       .  S
C760        C761   1.405       .  A
C760        C763   1.477       .  S
C761        C762   1.395       .  A
C761        H773   1.082       .  S
C762        H774   1.083       .  S
C763        C764   1.345       .  D
C763        H775   1.086       .  S
C764        C765   1.475       .  S
C764        H776   1.085       .  S
C765        C766   1.399       .  A
C765        C770   1.406       .  A
C766        C767   1.394       .  A
C766        H777   1.084       .  S
C767        C768   1.408       .  A
C767        H778   1.083       .  S
C768        C769   1.404       .  A
C769        C770   1.395       .  A
C769        H779   1.083       .  S
C770        H780   1.083       .  S
C781        C782   1.404       .  A
C781        C786   1.404       .  A
C782        C783   1.392       .  A
C782        H795   1.083       .  S
C783        C784   1.402       .  A
C783        H796   1.084       .  S
C784        C785   1.408       .  A
C784        C787   1.480       .  S
C785        C786   1.396       .  A
C785        H797   1.080       .  S
C786        H798   1.083       .  S
C787        C788   1.346       .  D
C787        H799   1.086       .  S
C788        C789   1.476       .  S
C788        H800   1.084       .  S
C789        C790   1.400       .  A
C789        C794   1.405       .  A
C790        C791   1.395       .  A
C790        H801   1.084       .  S
C791        C792   1.407       .  A
C791        H802   1.083       .  S
C792        C793   1.405       .  A
C793        C794   1.394       .  A
C793        H803   1.083       .  S
C794        H804   1.083       .  S
C805        C806   1.406       .  A
C805        C810   1.407       .  A
C806        C807   1.396       .  A
C806        H819   1.083       .  S
C807        C808   1.401       .  A
C807        H820   1.084       .  S
C808        C809   1.403       .  A
C808        C811   1.474       .  S
C809        C810   1.393       .  A
C809        H821   1.083       .  S
C810        H822   1.083       .  S
C811        C812   1.347       .  D
C811        H823   1.085       .  S
C812        C813   1.479       .  S
C812        H824   1.087       .  S
C813        C814   1.403       .  A
C813        C818   1.406       .  A
C814        C815   1.397       .  A
C814        H825   1.083       .  S
C815        C816   1.404       .  A
C815        H826   1.083       .  S
C816        C817   1.405       .  A
C817        C818   1.393       .  A
C817        H827   1.083       .  S
C818        H828   1.081       .  S
C829        C830   1.406       .  A
C829        C834   1.403       .  A
C830        C831   1.399       .  A
C830        H843   1.083       .  S
C831        C832   1.403       .  A
C831        H844   1.083       .  S
C832        C833   1.407       .  A
C832        C835   1.483       .  S
C833        C834   1.393       .  A
C833        H845   1.081       .  S
C834        H846   1.083       .  S
C835        C836   1.347       .  D
C835        H847   1.086       .  S
C836        C837   1.479       .  S
C836        H848   1.085       .  S
C837        C838   1.403       .  A
C837        C842   1.404       .  A
C838        C839   1.396       .  A
C838        H849   1.083       .  S
C839        C840   1.403       .  A
C839        H850   1.083       .  S
C840        C841   1.409       .  A
C841        C842   1.396       .  A
C841        H851   1.083       .  S
C842        H852   1.082       .  S
C853        C854   1.404       .  A
C853        C858   1.401       .  A
C854        C855   1.407       .  A
C854        H867   1.083       .  S
C855        C856   1.408       .  A
C855        H868   1.083       .  S
C856        C857   1.410       .  A
C856        C859   1.499       .  S
C857        C858   1.396       .  A
C857        H869   1.080       .  S
C858        H870   1.084       .  S
C859        C860   1.350       .  D
C859        H871   1.084       .  S
C860        C861   1.494       .  S
C860        H872   1.084       .  S
C861        C862   1.402       .  A
C861        C866   1.412       .  A
C862        C863   1.392       .  A
C862        H873   1.084       .  S
C863        C864   1.406       .  A
C863        H874   1.083       .  S
C864        C865   1.407       .  A
C865        C866   1.409       .  A
C865        H875   1.083       .  S
C866        H876   1.080       .  S
C877        C878   1.407       .  A
C877        C882   1.411       .  A
C878        C879   1.402       .  A
C878        H891   1.083       .  S
C879        C880   1.407       .  A
C879        H892   1.083       .  S
C880        C881   1.409       .  A
C880        C883   1.500       .  S
C881        C882   1.408       .  A
C881        H893   1.081       .  S
C882        H894   1.083       .  S
C883        C884   1.356       .  D
C883        H895   1.086       .  S
C884        C885   1.499       .  S
C884        H896   1.084       .  S
C885        C886   1.411       .  A
C885        C890   1.405       .  A
C886        C887   1.411       .  A
C886        H897   1.083       .  S
C887        C888   1.404       .  A
C887        H898   1.083       .  S
C888        C889   1.407       .  A
C889        C890   1.396       .  A
C889        H899   1.084       .  S
C890        H900   1.082       .  S
C901        C902   1.403       .  A
C901        C906   1.404       .  A
C902        C903   1.405       .  A
C902        H915   1.083       .  S
C903        C904   1.407       .  A
C903        H916   1.083       .  S
C904        C905   1.406       .  A
C904        C907   1.491       .  S
C905        C906   1.398       .  A
C905        H917   1.082       .  S
C906        H918   1.084       .  S
C907        C908   1.348       .  D
C907        H919   1.087       .  S
C908        C909   1.487       .  S
C908        H920   1.086       .  S
C909        C910   1.401       .  A
C909        C914   1.407       .  A
C910        C911   1.399       .  A
C910        H921   1.083       .  S
C911        C912   1.408       .  A
C911        H922   1.083       .  S
C912        C913   1.408       .  A
C913        C914   1.406       .  A
C913        H923   1.083       .  S
C914        H924   1.083       .  S
C925        C926   1.405       .  A
C925        C930   1.403       .  A
C926        C927   1.408       .  A
C926        H939   1.083       .  S
C927        C928   1.409       .  A
C927        H940   1.083       .  S
C928        C929   1.407       .  A
C928        C931   1.496       .  S
C929        C930   1.394       .  A
C929        H941   1.082       .  S
C930        H942   1.084       .  S
C931        C932   1.351       .  D
C931        H943   1.085       .  S
C932        C933   1.493       .  S
C932        H944   1.086       .  S
C933        C934   1.403       .  A
C933        C938   1.410       .  A
C934        C935   1.396       .  A
C934        H945   1.084       .  S
C935        C936   1.405       .  A
C935        H946   1.083       .  S
C936        C937   1.409       .  A
C937        C938   1.408       .  A
C937        H947   1.083       .  S
C938        H948   1.081       .  S
C949        C950   1.404   1_554  A
C949        C954   1.405       .  A
C950        C951   1.407       .  A
C950        H963   1.083       .  S
C951        C952   1.409       .  A
C951        H964   1.083       .  S
C952        C953   1.408   1_556  A
C952        C955   1.499       .  S
C953        C954   1.399       .  A
C953        H965   1.081       .  S
C954        H966   1.084       .  S
C955        C956   1.350   1_556  D
C955        H967   1.086       .  S
C956        C957   1.491   1_554  S
C956        H968   1.085       .  S
C957        C958   1.401   1_556  A
C957        C962   1.410       .  A
C958        C959   1.397       .  A
C958        H969   1.083       .  S
C959        C960   1.405   1_554  A
C959        H970   1.081       .  S
C960        C961   1.409       .  A
C961        C962   1.409       .  A
C961        H971   1.083       .  S
C962        H972   1.083       .  S
C973        C974   1.409   1_556  A
C973        C978   1.406       .  A
C974        C975   1.401       .  A
C974        H987   1.083       .  S
C975        C976   1.403   1_554  A
C975        H988   1.083       .  S
C976        C977   1.409       .  A
C976        C979   1.494       .  S
C977        C978   1.406       .  A
C977        H989   1.082       .  S
C978        H990   1.083       .  S
C979        C980   1.350       .  D
C979        H991   1.086   1_556  S
C980        C981   1.496       .  S
C980        H992   1.086       .  S
C981        C982   1.408       .  A
C981        C986   1.408   1_556  A
C982        C983   1.405       .  A
C982        H993   1.083       .  S
C983        C984   1.402       .  A
C983        H994   1.083       .  S
C984        C985   1.407   1_556  A
C985        C986   1.402       .  A
C985        H995   1.084       .  S
C986        H996   1.082       .  S
C997        C998   1.403       .  A
C997       C1002   1.404   1_556  A
C998        C999   1.407       .  A
C998       H1011   1.083       .  S
C999       C1000   1.408       .  A
C999       H1012   1.083       .  S
C1000      C1001   1.406   1_556  A
C1000      C1003   1.493       .  S
C1001      C1002   1.395       .  A
C1001      H1013   1.082       .  S
C1002      H1014   1.084       .  S
C1003      C1004   1.353       .  D
C1003      H1015   1.084       .  S
C1004      C1005   1.492       .  S
C1004      H1016   1.085       .  S
C1005      C1006   1.407       .  A
C1005      C1010   1.406       .  A
C1006      C1007   1.400       .  A
C1006      H1017   1.083       .  S
C1007      C1008   1.403       .  A
C1007      H1018   1.083       .  S
C1008      C1009   1.411       .  A
C1009      C1010   1.400       .  A
C1009      H1019   1.083       .  S
C1010      H1020   1.081       .  S
C1021      C1022   1.406       .  A
C1021      C1026   1.412       .  A
C1022      C1023   1.408       .  A
C1022      H1035   1.083   1_556  S
C1023      C1024   1.411       .  A
C1023      H1036   1.083   1_556  S
C1024      C1025   1.405       .  A
C1024      C1027   1.502       .  S
C1025      C1026   1.403       .  A
C1025      H1037   1.081       .  S
C1026      H1038   1.083       .  S
C1027      C1028   1.359       .  D
C1027      H1039   1.086   1_556  S
C1028      C1029   1.502       .  S
C1028      H1040   1.085       .  S
C1029      C1030   1.412       .  A
C1029      C1034   1.402   1_556  A
C1030      C1031   1.414       .  A
C1030      H1041   1.083       .  S
C1031      C1032   1.408   1_556  A
C1031      H1042   1.083       .  S
C1032      C1033   1.413       .  A
C1033      C1034   1.397       .  A
C1033      H1043   1.083       .  S
C1034      H1044   1.082       .  S
C1045      C1046   1.406       .  A
C1045      C1050   1.406       .  A
C1046      C1047   1.397       .  A
C1046      H1059   1.083       .  S
C1047      C1048   1.402       .  A
C1047      H1060   1.083       .  S
C1048      C1049   1.404       .  A
C1048      C1051   1.477       .  S
C1049      C1050   1.392       .  A
C1049      H1061   1.083       .  S
C1050      H1062   1.083       .  S
C1051      C1052   1.347       .  D
C1051      H1063   1.085       .  S
C1052      C1053   1.476       .  S
C1052      H1064   1.086       .  S
C1053      C1054   1.402       .  A
C1053      C1058   1.406       .  A
C1054      C1055   1.393       .  A
C1054      H1065   1.084       .  S
C1055      C1056   1.405       .  A
C1055      H1066   1.083       .  S
C1056      C1057   1.404       .  A
C1057      C1058   1.395       .  A
C1057      H1067   1.083       .  S
C1058      H1068   1.081       .  S
C1069      C1070   1.406       .  A
C1069      C1074   1.405       .  A
C1070      C1071   1.399       .  A
C1070      H1083   1.083       .  S
C1071      C1072   1.402       .  A
C1071      H1084   1.083       .  S
C1072      C1073   1.405       .  A
C1072      C1075   1.478       .  S
C1073      C1074   1.391       .  A
C1073      H1085   1.082       .  S
C1074      H1086   1.083       .  S
C1075      C1076   1.346       .  D
C1075      H1087   1.086       .  S
C1076      C1077   1.475       .  S
C1076      H1088   1.086       .  S
C1077      C1078   1.401       .  A
C1077      C1082   1.404       .  A
C1078      C1079   1.394       .  A
C1078      H1089   1.084       .  S
C1079      C1080   1.405       .  A
C1079      H1090   1.083       .  S
C1080      C1081   1.405       .  A
C1081      C1082   1.395       .  A
C1081      H1091   1.083       .  S
C1082      H1092   1.082       .  S
C1093      C1094   1.406       .  A
C1093      C1098   1.406       .  A
C1094      C1095   1.397       .  A
C1094      H1107   1.083       .  S
C1095      C1096   1.401       .  A
C1095      H1108   1.083       .  S
C1096      C1097   1.405       .  A
C1096      C1099   1.477       .  S
C1097      C1098   1.393       .  A
C1097      H1109   1.082       .  S
C1098      H1110   1.083       .  S
C1099      C1100   1.346       .  D
C1099      H1111   1.085       .  S
C1100      C1101   1.477       .  S
C1100      H1112   1.086       .  S
C1101      C1102   1.400       .  A
C1101      C1106   1.406       .  A
C1102      C1103   1.394       .  A
C1102      H1113   1.084       .  S
C1103      C1104   1.407       .  A
C1103      H1114   1.083       .  S
C1104      C1105   1.404       .  A
C1105      C1106   1.396       .  A
C1105      H1115   1.083       .  S
C1106      H1116   1.081       .  S
C1117      C1118   1.407       .  A
C1117      C1122   1.406       .  A
C1118      C1119   1.396       .  A
C1118      H1131   1.083       .  S
C1119      C1120   1.401       .  A
C1119      H1132   1.083       .  S
C1120      C1121   1.406       .  A
C1120      C1123   1.480       .  S
C1121      C1122   1.395       .  A
C1121      H1133   1.083       .  S
C1122      H1134   1.083       .  S
C1123      C1124   1.347       .  D
C1123      H1135   1.085       .  S
C1124      C1125   1.480       .  S
C1124      H1136   1.086       .  S
C1125      C1126   1.401       .  A
C1125      C1130   1.408       .  A
C1126      C1127   1.392       .  A
C1126      H1137   1.084       .  S
C1127      C1128   1.404       .  A
C1127      H1138   1.083       .  S
C1128      C1129   1.408       .  A
C1129      C1130   1.399       .  A
C1129      H1139   1.083       .  S
C1130      H1140   1.081       .  S
C1141      C1142   1.408   1_565  A
C1141      C1146   1.411       .  A
C1142      C1143   1.413       .  A
C1142      H1155   1.083       .  S
C1143      C1144   1.410       .  A
C1143      H1156   1.083       .  S
C1144      C1145   1.401   1_545  A
C1144      C1147   1.495       .  S
C1145      C1146   1.393       .  A
C1145      H1157   1.083       .  S
C1146      H1158   1.083       .  S
C1147      C1148   1.354       .  D
C1147      H1159   1.085       .  S
C1148      C1149   1.494       .  S
C1148      H1160   1.087   1_545  S
C1149      C1150   1.407       .  A
C1149      C1154   1.406       .  A
C1150      C1151   1.402       .  A
C1150      H1161   1.083       .  S
C1151      C1152   1.406       .  A
C1151      H1162   1.083       .  S
C1152      C1153   1.411       .  A
C1153      C1154   1.404       .  A
C1153      H1163   1.083       .  S
C1154      H1164   1.082       .  S
C1165      C1166   1.407       .  A
C1165      C1170   1.409       .  A
C1166      C1167   1.404       .  A
C1166      H1179   1.083       .  S
C1167      C1168   1.408       .  A
C1167      H1180   1.083       .  S
C1168      C1169   1.409       .  A
C1168      C1171   1.502       .  S
C1169      C1170   1.404       .  A
C1169      H1181   1.080       .  S
C1170      H1182   1.083       .  S
C1171      C1172   1.356       .  D
C1171      H1183   1.085       .  S
C1172      C1173   1.499       .  S
C1172      H1184   1.083   1_565  S
C1173      C1174   1.409   1_565  A
C1173      C1178   1.407       .  A
C1174      C1175   1.406       .  A
C1174      H1185   1.083       .  S
C1175      C1176   1.402       .  A
C1175      H1186   1.083       .  S
C1176      C1177   1.407   1_545  A
C1177      C1178   1.401       .  A
C1177      H1187   1.084       .  S
C1178      H1188   1.082       .  S
C1189      C1190   1.407       .  A
C1189      C1194   1.411       .  A
C1190      C1191   1.397       .  A
C1190      H1203   1.083       .  S
C1191      C1192   1.403       .  A
C1191      H1204   1.083       .  S
C1192      C1193   1.412       .  A
C1192      C1195   1.500       .  S
C1193      C1194   1.412       .  A
C1193      H1205   1.081       .  S
C1194      H1206   1.083       .  S
C1195      C1196   1.351       .  D
C1195      H1207   1.084       .  S
C1196      C1197   1.503       .  S
C1196      H1208   1.085       .  S
C1197      C1198   1.407       .  A
C1197      C1202   1.412   1_545  A
C1198      C1199   1.404       .  A
C1198      H1209   1.083       .  S
C1199      C1200   1.403       .  A
C1199      H1210   1.083       .  S
C1200      C1201   1.403   1_545  A
C1201      C1202   1.403       .  A
C1201      H1211   1.084       .  S
C1202      H1212   1.080       .  S
C1213      C1214   1.409       .  A
C1213      C1218   1.407       .  A
C1214      C1215   1.395       .  A
C1214      H1227   1.083       .  S
C1215      C1216   1.400       .  A
C1215      H1228   1.084       .  S
C1216      C1217   1.410       .  A
C1216      C1219   1.488       .  S
C1217      C1218   1.405       .  A
C1217      H1229   1.082       .  S
C1218      H1230   1.083       .  S
C1219      C1220   1.348       .  D
C1219      H1231   1.084       .  S
C1220      C1221   1.493       .  S
C1220      H1232   1.086       .  S
C1221      C1222   1.404       .  A
C1221      C1226   1.413       .  A
C1222      C1223   1.398       .  A
C1222      H1233   1.083       .  S
C1223      C1224   1.403       .  A
C1223      H1234   1.084       .  S
C1224      C1225   1.400       .  A
C1225      C1226   1.402       .  A
C1225      H1235   1.083       .  S
C1226      H1236   1.080       .  S
C1237      C1238   1.402       .  A
C1237      C1242   1.402       .  A
C1238      C1239   1.403       .  A
C1238      H1251   1.083       .  S
C1239      C1240   1.407       .  A
C1239      H1252   1.083       .  S
C1240      C1241   1.409       .  A
C1240      C1243   1.493       .  S
C1241      C1242   1.398       .  A
C1241      H1253   1.081       .  S
C1242      H1254   1.084       .  S
C1243      C1244   1.348       .  D
C1243      H1255   1.086       .  S
C1244      C1245   1.489       .  S
C1244      H1256   1.085       .  S
C1245      C1246   1.402       .  A
C1245      C1250   1.410       .  A
C1246      C1247   1.396       .  A
C1246      H1257   1.083       .  S
C1247      C1248   1.405       .  A
C1247      H1258   1.084       .  S
C1248      C1249   1.405       .  A
C1249      C1250   1.406       .  A
C1249      H1259   1.083       .  S
C1250      H1260   1.082       .  S
C1261      C1262   1.408       .  A
C1261      C1266   1.407       .  A
C1262      C1263   1.398       .  A
C1262      H1275   1.083       .  S
C1263      C1264   1.402       .  A
C1263      H1276   1.084       .  S
C1264      C1265   1.410       .  A
C1264      C1267   1.493       .  S
C1265      C1266   1.408       .  A
C1265      H1277   1.082       .  S
C1266      H1278   1.083       .  S
C1267      C1268   1.351       .  D
C1267      H1279   1.085       .  S
C1268      C1269   1.497       .  S
C1268      H1280   1.086       .  S
C1269      C1270   1.409       .  A
C1269      C1274   1.408       .  A
C1270      C1271   1.407       .  A
C1270      H1281   1.083       .  S
C1271      C1272   1.403       .  A
C1271      H1282   1.083       .  S
C1272      C1273   1.405       .  A
C1273      C1274   1.398       .  A
C1273      H1283   1.084       .  S
C1274      H1284   1.081       .  S
C1285      C1286   1.405       .  A
C1285      C1290   1.405       .  A
C1286      C1287   1.410       .  A
C1286      H1299   1.083       .  S
C1287      C1288   1.409       .  A
C1287      H1300   1.083       .  S
C1288      C1289   1.404       .  A
C1288      C1291   1.494       .  S
C1289      C1290   1.396       .  A
C1289      H1301   1.083       .  S
C1290      H1302   1.084       .  S
C1291      C1292   1.354       .  D
C1291      H1303   1.085       .  S
C1292      C1293   1.495       .  S
C1292      H1304   1.087       .  S
C1293      C1294   1.407       .  A
C1293      C1298   1.406       .  A
C1294      C1295   1.402       .  A
C1294      H1305   1.083       .  S
C1295      C1296   1.405       .  A
C1295      H1306   1.083       .  S
C1296      C1297   1.411       .  A
C1297      C1298   1.403       .  A
C1297      H1307   1.083       .  S
C1298      H1308   1.081       .  S
C1309      C1310   1.405       .  A
C1309      C1314   1.408       .  A
C1310      C1311   1.398       .  A
C1310      H1323   1.083       .  S
C1311      C1312   1.403       .  A
C1311      H1324   1.083       .  S
C1312      C1313   1.406       .  A
C1312      C1315   1.483       .  S
C1313      C1314   1.395       .  A
C1313      H1325   1.081       .  S
C1314      H1326   1.083       .  S
C1315      C1316   1.347       .  D
C1315      H1327   1.086       .  S
C1316      C1317   1.480       .  S
C1316      H1328   1.085       .  S
C1317      C1318   1.401       .  A
C1317      C1322   1.407       .  A
C1318      C1319   1.394       .  A
C1318      H1329   1.084       .  S
C1319      C1320   1.407       .  A
C1319      H1330   1.083       .  S
C1320      C1321   1.404       .  A
C1321      C1322   1.397       .  A
C1321      H1331   1.083       .  S
C1322      H1332   1.082       .  S
C1333      C1334   1.407       .  A
C1333      C1338   1.406       .  A
C1334      C1335   1.393       .  A
C1334      H1347   1.083       .  S
C1335      C1336   1.400       .  A
C1335      H1348   1.084       .  S
C1336      C1337   1.408       .  A
C1336      C1339   1.479       .  S
C1337      C1338   1.398       .  A
C1337      H1349   1.081       .  S
C1338      H1350   1.083       .  S
C1339      C1340   1.345       .  D
C1339      H1351   1.086       .  S
C1340      C1341   1.478       .  S
C1340      H1352   1.085       .  S
C1341      C1342   1.401       .  A
C1341      C1346   1.406       .  A
C1342      C1343   1.395       .  A
C1342      H1353   1.083       .  S
C1343      C1344   1.405       .  A
C1343      H1354   1.083       .  S
C1344      C1345   1.405       .  A
C1345      C1346   1.394       .  A
C1345      H1355   1.083       .  S
C1346      H1356   1.082       .  S
C1357      C1358   1.408       .  A
C1357      C1362   1.404       .  A
C1358      C1359   1.393       .  A
C1358      H1371   1.083       .  S
C1359      C1360   1.401       .  A
C1359      H1372   1.084       .  S
C1360      C1361   1.409       .  A
C1360      C1363   1.481       .  S
C1361      C1362   1.398       .  A
C1361      H1373   1.080       .  S
C1362      H1374   1.083       .  S
C1363      C1364   1.346       .  D
C1363      H1375   1.086       .  S
C1364      C1365   1.479       .  S
C1364      H1376   1.084       .  S
C1365      C1366   1.401       .  A
C1365      C1370   1.405       .  A
C1366      C1367   1.396       .  A
C1366      H1377   1.084       .  S
C1367      C1368   1.407       .  A
C1367      H1378   1.083       .  S
C1368      C1369   1.406       .  A
C1369      C1370   1.395       .  A
C1369      H1379   1.083       .  S
C1370      H1380   1.083       .  S
C1381      C1382   1.403       .  A
C1381      C1386   1.406   1_565  A
C1382      C1383   1.402       .  A
C1382      H1395   1.083       .  S
C1383      C1384   1.406       .  A
C1383      H1396   1.083       .  S
C1384      C1385   1.410   1_565  A
C1384      C1387   1.498       .  S
C1385      C1386   1.407       .  A
C1385      H1397   1.082       .  S
C1386      H1398   1.083       .  S
C1387      C1388   1.350   1_565  D
C1387      H1399   1.086       .  S
C1388      C1389   1.497       .  S
C1388      H1400   1.086       .  S
C1389      C1390   1.402       .  A
C1389      C1394   1.411   1_545  A
C1390      C1391   1.401       .  A
C1390      H1401   1.083       .  S
C1391      C1392   1.409       .  A
C1391      H1402   1.081       .  S
C1392      C1393   1.406   1_545  A
C1393      C1394   1.408       .  A
C1393      H1403   1.083       .  S
C1394      H1404   1.082       .  S
C1405      C1406   1.404   1_565  A
C1405      C1410   1.404       .  A
C1406      C1407   1.396       .  A
C1406      H1419   1.083       .  S
C1407      C1408   1.405   1_545  A
C1407      H1420   1.084       .  S
C1408      C1409   1.408       .  A
C1408      C1411   1.484       .  S
C1409      C1410   1.392       .  A
C1409      H1421   1.079       .  S
C1410      H1422   1.083       .  S
C1411      C1412   1.347       .  D
C1411      H1423   1.084       .  S
C1412      C1413   1.481       .  S
C1412      H1424   1.082       .  S
C1413      C1414   1.404       .  A
C1413      C1418   1.407       .  A
C1414      C1415   1.396       .  A
C1414      H1425   1.083   1_565  S
C1415      C1416   1.403       .  A
C1415      H1426   1.083       .  S
C1416      C1417   1.403       .  A
C1417      C1418   1.390       .  A
C1417      H1427   1.083       .  S
C1418      H1428   1.080       .  S
C1429      C1430   1.407       .  A
C1429      C1434   1.407       .  A
C1430      C1431   1.399       .  A
C1430      H1443   1.083       .  S
C1431      C1432   1.403       .  A
C1431      H1444   1.083       .  S
C1432      C1433   1.410       .  A
C1432      C1435   1.493       .  S
C1433      C1434   1.408       .  A
C1433      H1445   1.082       .  S
C1434      H1446   1.083       .  S
C1435      C1436   1.351       .  D
C1435      H1447   1.085       .  S
C1436      C1437   1.499       .  S
C1436      H1448   1.086       .  S
C1437      C1438   1.409       .  A
C1437      C1442   1.408       .  A
C1438      C1439   1.407       .  A
C1438      H1449   1.083       .  S
C1439      C1440   1.404       .  A
C1439      H1450   1.083       .  S
C1440      C1441   1.404       .  A
C1441      C1442   1.400       .  A
C1441      H1451   1.084       .  S
C1442      H1452   1.081       .  S
C1453      C1454   1.403       .  A
C1453      C1458   1.405       .  A
C1454      C1455   1.404       .  A
C1454      H1467   1.083       .  S
C1455      C1456   1.408       .  A
C1455      H1468   1.083       .  S
C1456      C1457   1.406       .  A
C1456      C1459   1.490       .  S
C1457      C1458   1.396       .  A
C1457      H1469   1.082       .  S
C1458      H1470   1.084       .  S
C1459      C1460   1.352       .  D
C1459      H1471   1.085       .  S
C1460      C1461   1.489       .  S
C1460      H1472   1.085       .  S
C1461      C1462   1.406       .  A
C1461      C1466   1.405       .  A
C1462      C1463   1.401       .  A
C1462      H1473   1.083       .  S
C1463      C1464   1.406       .  A
C1463      H1474   1.083       .  S
C1464      C1465   1.409       .  A
C1465      C1466   1.397       .  A
C1465      H1475   1.083       .  S
C1466      H1476   1.082       .  S
C1477      C1478   1.404       .  A
C1477      C1482   1.407       .  A
C1478      C1479   1.402       .  A
C1478      H1491   1.083       .  S
C1479      C1480   1.406       .  A
C1479      H1492   1.083       .  S
C1480      C1481   1.409       .  A
C1480      C1483   1.495       .  S
C1481      C1482   1.407       .  A
C1481      H1493   1.082       .  S
C1482      H1494   1.083       .  S
C1483      C1484   1.353       .  D
C1483      H1495   1.086       .  S
C1484      C1485   1.499       .  S
C1484      H1496   1.086       .  S
C1485      C1486   1.410       .  A
C1485      C1490   1.405       .  A
C1486      C1487   1.410       .  A
C1486      H1497   1.083       .  S
C1487      C1488   1.406       .  A
C1487      H1498   1.083       .  S
C1488      C1489   1.408       .  A
C1489      C1490   1.399       .  A
C1489      H1499   1.083       .  S
C1490      H1500   1.082       .  S
C1501      C1502   1.405       .  A
C1501      C1506   1.412       .  A
C1502      C1503   1.405       .  A
C1502      H1515   1.083       .  S
C1503      C1504   1.409       .  A
C1503      H1516   1.083       .  S
C1504      C1505   1.406       .  A
C1504      C1507   1.500       .  S
C1505      C1506   1.404       .  A
C1505      H1517   1.081       .  S
C1506      H1518   1.083       .  S
C1507      C1508   1.357       .  D
C1507      H1519   1.086       .  S
C1508      C1509   1.500       .  S
C1508      H1520   1.085       .  S
C1509      C1510   1.410       .  A
C1509      C1514   1.403       .  A
C1510      C1511   1.413       .  A
C1510      H1521   1.083       .  S
C1511      C1512   1.408       .  A
C1511      H1522   1.083       .  S
C1512      C1513   1.412       .  A
C1513      C1514   1.397       .  A
C1513      H1523   1.083       .  S
C1514      H1524   1.083       .  S
C1525      C1526   1.402   1_545  A
C1525      C1530   1.406       .  A
C1526      C1527   1.400       .  A
C1526      H1539   1.083       .  S
C1527      C1528   1.407   1_565  A
C1527      H1540   1.083       .  S
C1528      C1529   1.407       .  A
C1528      C1531   1.489       .  S
C1529      C1530   1.399       .  A
C1529      H1541   1.081       .  S
C1530      H1542   1.083       .  S
C1531      C1532   1.351       .  D
C1531      H1543   1.087       .  S
C1532      C1533   1.487       .  S
C1532      H1544   1.084       .  S
C1533      C1534   1.407       .  A
C1533      C1538   1.401       .  A
C1534      C1535   1.409       .  A
C1534      H1545   1.083       .  S
C1535      C1536   1.406       .  A
C1535      H1546   1.082       .  S
C1536      C1537   1.413       .  A
C1537      C1538   1.391       .  A
C1537      H1547   1.083       .  S
C1538      H1548   1.083       .  S
C1549      C1550   1.408       .  A
C1549      C1554   1.409       .  A
C1550      C1551   1.395       .  A
C1550      H1563   1.083   1_545  S
C1551      C1552   1.400       .  A
C1551      H1564   1.084   1_545  S
C1552      C1553   1.408       .  A
C1552      C1555   1.485       .  S
C1553      C1554   1.406       .  A
C1553      H1565   1.083       .  S
C1554      H1566   1.083       .  S
C1555      C1556   1.346       .  D
C1555      H1567   1.087   1_545  S
C1556      C1557   1.489       .  S
C1556      H1568   1.086       .  S
C1557      C1558   1.407       .  A
C1557      C1562   1.405   1_545  A
C1558      C1559   1.407       .  A
C1558      H1569   1.083       .  S
C1559      C1560   1.404   1_545  A
C1559      H1570   1.083       .  S
C1560      C1561   1.404       .  A
C1561      C1562   1.395       .  A
C1561      H1571   1.084       .  S
C1562      H1572   1.083       .  S
C1573      C1574   1.403       .  A
C1573      C1578   1.406   1_565  A
C1574      C1575   1.405       .  A
C1574      H1587   1.083       .  S
C1575      C1576   1.408   1_565  A
C1575      H1588   1.083       .  S
C1576      C1577   1.406       .  A
C1576      C1579   1.495       .  S
C1577      C1578   1.401       .  A
C1577      H1589   1.082       .  S
C1578      H1590   1.083       .  S
C1579      C1580   1.356       .  D
C1579      H1591   1.082       .  S
C1580      C1581   1.501       .  S
C1580      H1592   1.085       .  S
C1581      C1582   1.410       .  A
C1581      C1586   1.407       .  A
C1582      C1583   1.406       .  A
C1582      H1593   1.083       .  S
C1583      C1584   1.406       .  A
C1583      H1594   1.083       .  S
C1584      C1585   1.409       .  A
C1585      C1586   1.398       .  A
C1585      H1595   1.083       .  S
C1586      H1596   1.079       .  S
C1597      C1598   1.402       .  A
C1597      C1602   1.406   1_565  A
C1598      C1599   1.400       .  A
C1598      H1611   1.084       .  S
C1599      C1600   1.406       .  A
C1599      H1612   1.083       .  S
C1600      C1601   1.413   1_565  A
C1600      C1603   1.503       .  S
C1601      C1602   1.411       .  A
C1601      H1613   1.081       .  S
C1602      H1614   1.083       .  S
C1603      C1604   1.352   1_565  D
C1603      H1615   1.086       .  S
C1604      C1605   1.502       .  S
C1604      H1616   1.085       .  S
C1605      C1606   1.405       .  A
C1605      C1610   1.410   1_545  A
C1606      C1607   1.405       .  A
C1606      H1617   1.083       .  S
C1607      C1608   1.409       .  A
C1607      H1618   1.083       .  S
C1608      C1609   1.409   1_545  A
C1609      C1610   1.408       .  A
C1609      H1619   1.083       .  S
C1610      H1620   1.082       .  S
C1621      C1622   1.408       .  A
C1621      C1626   1.408       .  A
C1622      C1623   1.400       .  A
C1622      H1635   1.083       .  S
C1623      C1624   1.402       .  A
C1623      H1636   1.083       .  S
C1624      C1625   1.407       .  A
C1624      C1627   1.486       .  S
C1625      C1626   1.399       .  A
C1625      H1637   1.082       .  S
C1626      H1638   1.083       .  S
C1627      C1628   1.348       .  D
C1627      H1639   1.086       .  S
C1628      C1629   1.483       .  S
C1628      H1640   1.085       .  S
C1629      C1630   1.402       .  A
C1629      C1634   1.406       .  A
C1630      C1631   1.396       .  A
C1630      H1641   1.083       .  S
C1631      C1632   1.406       .  A
C1631      H1642   1.083       .  S
C1632      C1633   1.407       .  A
C1633      C1634   1.398       .  A
C1633      H1643   1.083       .  S
C1634      H1644   1.082       .  S
C1645      C1646   1.406       .  A
C1645      C1650   1.405       .  A
C1646      C1647   1.393       .  A
C1646      H1659   1.083       .  S
C1647      C1648   1.399       .  A
C1647      H1660   1.084       .  S
C1648      C1649   1.406       .  A
C1648      C1651   1.474       .  S
C1649      C1650   1.395       .  A
C1649      H1661   1.082       .  S
C1650      H1662   1.083       .  S
C1651      C1652   1.342       .  D
C1651      H1663   1.084       .  S
C1652      C1653   1.477       .  S
C1652      H1664   1.086       .  S
C1653      C1654   1.400       .  A
C1653      C1658   1.407       .  A
C1654      C1655   1.392       .  A
C1654      H1665   1.084       .  S
C1655      C1656   1.405       .  A
C1655      H1666   1.083       .  S
C1656      C1657   1.404       .  A
C1657      C1658   1.394       .  A
C1657      H1667   1.083       .  S
C1658      H1668   1.081       .  S
C1669      C1670   1.405       .  A
C1669      C1674   1.405       .  A
C1670      C1671   1.398       .  A
C1670      H1683   1.083       .  S
C1671      C1672   1.403       .  A
C1671      H1684   1.083       .  S
C1672      C1673   1.406       .  A
C1672      C1675   1.481       .  S
C1673      C1674   1.391       .  A
C1673      H1685   1.080       .  S
C1674      H1686   1.083       .  S
C1675      C1676   1.346       .  D
C1675      H1687   1.086       .  S
C1676      C1677   1.475       .  S
C1676      H1688   1.084       .  S
C1677      C1678   1.401       .  A
C1677      C1682   1.404       .  A
C1678      C1679   1.395       .  A
C1678      H1689   1.084       .  S
C1679      C1680   1.405       .  A
C1679      H1690   1.083       .  S
C1680      C1681   1.407       .  A
C1681      C1682   1.395       .  A
C1681      H1691   1.083       .  S
C1682      H1692   1.083       .  S
C1693      C1694   1.404       .  A
C1693      C1698   1.406       .  A
C1694      C1695   1.390       .  A
C1694      H1707   1.083       .  S
C1695      C1696   1.400       .  A
C1695      H1708   1.084       .  S
C1696      C1697   1.408       .  A
C1696      C1699   1.477       .  S
C1697      C1698   1.396       .  A
C1697      H1709   1.081       .  S
C1698      H1710   1.083       .  S
C1699      C1700   1.346       .  D
C1699      H1711   1.087       .  S
C1700      C1701   1.476       .  S
C1700      H1712   1.085       .  S
C1701      C1702   1.400       .  A
C1701      C1706   1.406       .  A
C1702      C1703   1.395       .  A
C1702      H1713   1.084       .  S
C1703      C1704   1.408       .  A
C1703      H1714   1.083       .  S
C1704      C1705   1.406       .  A
C1705      C1706   1.395       .  A
C1705      H1715   1.083       .  S
C1706      H1716   1.083       .  S
C1717      C1718   1.403   1_455  A
C1717      C1722   1.403       .  A
C1718      C1719   1.401       .  A
C1718      H1731   1.083       .  S
C1719      C1720   1.406   1_655  A
C1719      H1732   1.083       .  S
C1720      C1721   1.411       .  A
C1720      C1723   1.496       .  S
C1721      C1722   1.404       .  A
C1721      H1733   1.080       .  S
C1722      H1734   1.083       .  S
C1723      C1724   1.348       .  D
C1723      H1735   1.087   1_455  S
C1724      C1725   1.488       .  S
C1724      H1736   1.084       .  S
C1725      C1726   1.401       .  A
C1725      C1730   1.409       .  A
C1726      C1727   1.398       .  A
C1726      H1737   1.083       .  S
C1727      C1728   1.407       .  A
C1727      H1738   1.083       .  S
C1728      C1729   1.406       .  A
C1729      C1730   1.406       .  A
C1729      H1739   1.083   1_455  S
C1730      H1740   1.083       .  S
C1741      C1742   1.404       .  A
C1741      C1746   1.406       .  A
C1742      C1743   1.408       .  A
C1742      H1755   1.083       .  S
C1743      C1744   1.408       .  A
C1743      H1756   1.083       .  S
C1744      C1745   1.406       .  A
C1744      C1747   1.495       .  S
C1745      C1746   1.396       .  A
C1745      H1757   1.082       .  S
C1746      H1758   1.084       .  S
C1747      C1748   1.354       .  D
C1747      H1759   1.084       .  S
C1748      C1749   1.496       .  S
C1748      H1760   1.086       .  S
C1749      C1750   1.408       .  A
C1749      C1754   1.406       .  A
C1750      C1751   1.406       .  A
C1750      H1761   1.081       .  S
C1751      C1752   1.412       .  A
C1751      H1762   1.083       .  S
C1752      C1753   1.405       .  A
C1753      C1754   1.399       .  A
C1753      H1763   1.083       .  S
C1754      H1764   1.083       .  S
C1765      C1766   1.407       .  A
C1765      C1770   1.411       .  A
C1766      C1767   1.400       .  A
C1766      H1779   1.083       .  S
C1767      C1768   1.406       .  A
C1767      H1780   1.083       .  S
C1768      C1769   1.410       .  A
C1768      C1771   1.500       .  S
C1769      C1770   1.410       .  A
C1769      H1781   1.081       .  S
C1770      H1782   1.083       .  S
C1771      C1772   1.356       .  D
C1771      H1783   1.086       .  S
C1772      C1773   1.503       .  S
C1772      H1784   1.085       .  S
C1773      C1774   1.410       .  A
C1773      C1778   1.405       .  A
C1774      C1775   1.412       .  A
C1774      H1785   1.083   1_455  S
C1775      C1776   1.408       .  A
C1775      H1786   1.083       .  S
C1776      C1777   1.411       .  A
C1777      C1778   1.398       .  A
C1777      H1787   1.083       .  S
C1778      H1788   1.082       .  S
C1789      C1790   1.404       .  A
C1789      C1794   1.406       .  A
C1790      C1791   1.410       .  A
C1790      H1803   1.083       .  S
C1791      C1792   1.410       .  A
C1791      H1804   1.083       .  S
C1792      C1793   1.408       .  A
C1792      C1795   1.504       .  S
C1793      C1794   1.401       .  A
C1793      H1805   1.081   1_455  S
C1794      H1806   1.084       .  S
C1795      C1796   1.358       .  D
C1795      H1807   1.084       .  S
C1796      C1797   1.505       .  S
C1796      H1808   1.085       .  S
C1797      C1798   1.408       .  A
C1797      C1802   1.409       .  A
C1798      C1799   1.404       .  A
C1798      H1809   1.083       .  S
C1799      C1800   1.407       .  A
C1799      H1810   1.083       .  S
C1800      C1801   1.412       .  A
C1801      C1802   1.408       .  A
C1801      H1811   1.083       .  S
C1802      H1812   1.081       .  S
C1813      C1814   1.405       .  A
C1813      C1818   1.404   1_655  A
C1814      C1815   1.405       .  A
C1814      H1827   1.083       .  S
C1815      C1816   1.406       .  A
C1815      H1828   1.083       .  S
C1816      C1817   1.407   1_655  A
C1816      C1819   1.496       .  S
C1817      C1818   1.403       .  A
C1817      H1829   1.082       .  S
C1818      H1830   1.083       .  S
C1819      C1820   1.355   1_655  D
C1819      H1831   1.085       .  S
C1820      C1821   1.499       .  S
C1820      H1832   1.086       .  S
C1821      C1822   1.409       .  A
C1821      C1826   1.406   1_455  A
C1822      C1823   1.406       .  A
C1822      H1833   1.083       .  S
C1823      C1824   1.406       .  A
C1823      H1834   1.083       .  S
C1824      C1825   1.411   1_455  A
C1825      C1826   1.402       .  A
C1825      H1835   1.083       .  S
C1826      H1836   1.081       .  S
C1837      C1838   1.407   1_655  A
C1837      C1842   1.408       .  A
C1838      C1839   1.413       .  A
C1838      H1851   1.083       .  S
C1839      C1840   1.412   1_455  A
C1839      H1852   1.083       .  S
C1840      C1841   1.405       .  A
C1840      C1843   1.503       .  S
C1841      C1842   1.397       .  A
C1841      H1853   1.082       .  S
C1842      H1854   1.083       .  S
C1843      C1844   1.357       .  D
C1843      H1855   1.085   1_655  S
C1844      C1845   1.500       .  S
C1844      H1856   1.086       .  S
C1845      C1846   1.407   1_655  A
C1845      C1850   1.408       .  A
C1846      C1847   1.402       .  A
C1846      H1857   1.083       .  S
C1847      C1848   1.406       .  A
C1847      H1858   1.083       .  S
C1848      C1849   1.413       .  A
C1849      C1850   1.409   1_455  A
C1849      H1859   1.083       .  S
C1850      H1860   1.082       .  S
C1861      C1862   1.405       .  A
C1861      C1866   1.405       .  A
C1862      C1863   1.411       .  A
C1862      H1875   1.083       .  S
C1863      C1864   1.410       .  A
C1863      H1876   1.083       .  S
C1864      C1865   1.406       .  A
C1864      C1867   1.500       .  S
C1865      C1866   1.396       .  A
C1865      H1877   1.082       .  S
C1866      H1878   1.084       .  S
C1867      C1868   1.355       .  D
C1867      H1879   1.084       .  S
C1868      C1869   1.498       .  S
C1868      H1880   1.085       .  S
C1869      C1870   1.407       .  A
C1869      C1874   1.408       .  A
C1870      C1871   1.399       .  A
C1870      H1881   1.083       .  S
C1871      C1872   1.405       .  A
C1871      H1882   1.083       .  S
C1872      C1873   1.411       .  A
C1873      C1874   1.406       .  A
C1873      H1883   1.083       .  S
C1874      H1884   1.081       .  S
C1885      C1886   1.407       .  A
C1885      C1890   1.412       .  A
C1886      C1887   1.404       .  A
C1886      H1899   1.083       .  S
C1887      C1888   1.407       .  A
C1887      H1900   1.083       .  S
C1888      C1889   1.409       .  A
C1888      C1891   1.502       .  S
C1889      C1890   1.407       .  A
C1889      H1901   1.081       .  S
C1890      H1902   1.083       .  S
C1891      C1892   1.355       .  D
C1891      H1903   1.086       .  S
C1892      C1893   1.500       .  S
C1892      H1904   1.085       .  S
C1893      C1894   1.408       .  A
C1893      C1898   1.408       .  A
C1894      C1895   1.406       .  A
C1894      H1905   1.083       .  S
C1895      C1896   1.404       .  A
C1895      H1906   1.083       .  S
C1896      C1897   1.405       .  A
C1897      C1898   1.403       .  A
C1897      H1907   1.084       .  S
C1898      H1908   1.082       .  S
C1909      C1910   1.409       .  A
C1909      C1914   1.408       .  A
C1910      C1911   1.399       .  A
C1910      H1923   1.083       .  S
C1911      C1912   1.404       .  A
C1911      H1924   1.084       .  S
C1912      C1913   1.413       .  A
C1912      C1915   1.503       .  S
C1913      C1914   1.414       .  A
C1913      H1925   1.081       .  S
C1914      H1926   1.083       .  S
C1915      C1916   1.354       .  D
C1915      H1927   1.084       .  S
C1916      C1917   1.506       .  S
C1916      H1928   1.085       .  S
C1917      C1918   1.407       .  A
C1917      C1922   1.412       .  A
C1918      C1919   1.404       .  A
C1918      H1929   1.083       .  S
C1919      C1920   1.405       .  A
C1919      H1930   1.084       .  S
C1920      C1921   1.404       .  A
C1921      C1922   1.407       .  A
C1921      H1931   1.083       .  S
C1922      H1932   1.081       .  S
C1933      C1934   1.408       .  A
C1933      C1938   1.410       .  A
C1934      C1935   1.401       .  A
C1934      H1947   1.083       .  S
C1935      C1936   1.406       .  A
C1935      H1948   1.084       .  S
C1936      C1937   1.408       .  A
C1936      C1939   1.496       .  S
C1937      C1938   1.405       .  A
C1937      H1949   1.081       .  S
C1938      H1950   1.083       .  S
C1939      C1940   1.353       .  D
C1939      H1951   1.086       .  S
C1940      C1941   1.494       .  S
C1940      H1952   1.084       .  S
C1941      C1942   1.408       .  A
C1941      C1946   1.406       .  A
C1942      C1943   1.406       .  A
C1942      H1953   1.083       .  S
C1943      C1944   1.403       .  A
C1943      H1954   1.083       .  S
C1944      C1945   1.405       .  A
C1945      C1946   1.397       .  A
C1945      H1955   1.084       .  S
C1946      H1956   1.082       .  S
C1957      C1958   1.406       .  A
C1957      C1962   1.412       .  A
C1958      C1959   1.404       .  A
C1958      H1971   1.083       .  S
C1959      C1960   1.407       .  A
C1959      H1972   1.083       .  S
C1960      C1961   1.405       .  A
C1960      C1963   1.493       .  S
C1961      C1962   1.401       .  A
C1961      H1973   1.082       .  S
C1962      H1974   1.083       .  S
C1963      C1964   1.353       .  D
C1963      H1975   1.087       .  S
C1964      C1965   1.492       .  S
C1964      H1976   1.085       .  S
C1965      C1966   1.408       .  A
C1965      C1970   1.404       .  A
C1966      C1967   1.407       .  A
C1966      H1977   1.083       .  S
C1967      C1968   1.406       .  A
C1967      H1978   1.083       .  S
C1968      C1969   1.408       .  A
C1969      C1970   1.397       .  A
C1969      H1979   1.083       .  S
C1970      H1980   1.083       .  S
C1981      C1982   1.403       .  A
C1981      C1986   1.404       .  A
C1982      C1983   1.401       .  A
C1982      H1995   1.083       .  S
C1983      C1984   1.405       .  A
C1983      H1996   1.083       .  S
C1984      C1985   1.411       .  A
C1984      C1987   1.497       .  S
C1985      C1986   1.404       .  A
C1985      H1997   1.081       .  S
C1986      H1998   1.083       .  S
C1987      C1988   1.348       .  D
C1987      H1999   1.087       .  S
C1988      C1989   1.490       .  S
C1988      H2000   1.084       .  S
C1989      C1990   1.401       .  A
C1989      C1994   1.410       .  A
C1990      C1991   1.397       .  A
C1990      H2001   1.083       .  S
C1991      C1992   1.409       .  A
C1991      H2002   1.083       .  S
C1992      C1993   1.408       .  A
C1993      C1994   1.406       .  A
C1993      H2003   1.083       .  S
C1994      H2004   1.082       .  S
C2005      C2006   1.407       .  A
C2005      C2010   1.409       .  A
C2006      C2007   1.398       .  A
C2006      H2019   1.083       .  S
C2007      C2008   1.405       .  A
C2007      H2020   1.083       .  S
C2008      C2009   1.412       .  A
C2008      C2011   1.500       .  S
C2009      C2010   1.408       .  A
C2009      H2021   1.080       .  S
C2010      H2022   1.083       .  S
C2011      C2012   1.352       .  D
C2011      H2023   1.086       .  S
C2012      C2013   1.499       .  S
C2012      H2024   1.084       .  S
C2013      C2014   1.407       .  A
C2013      C2018   1.410       .  A
C2014      C2015   1.405       .  A
C2014      H2025   1.083       .  S
C2015      C2016   1.404       .  A
C2015      H2026   1.083       .  S
C2016      C2017   1.403       .  A
C2017      C2018   1.402       .  A
C2017      H2027   1.083       .  S
C2018      H2028   1.082       .  S
C2029      C2030   1.402       .  A
C2029      C2034   1.405       .  A
C2030      C2031   1.403       .  A
C2030      H2043   1.083       .  S
C2031      C2032   1.407       .  A
C2031      H2044   1.083       .  S
C2032      C2033   1.406       .  A
C2032      C2035   1.491       .  S
C2033      C2034   1.399       .  A
C2033      H2045   1.082       .  S
C2034      H2046   1.084       .  S
C2035      C2036   1.354       .  D
C2035      H2047   1.084       .  S
C2036      C2037   1.495       .  S
C2036      H2048   1.086       .  S
C2037      C2038   1.408       .  A
C2037      C2042   1.405       .  A
C2038      C2039   1.405       .  A
C2038      H2049   1.083       .  S
C2039      C2040   1.406       .  A
C2039      H2050   1.083       .  S
C2040      C2041   1.410       .  A
C2041      C2042   1.397       .  A
C2041      H2051   1.083       .  S
C2042      H2052   1.081       .  S
C2053      C2054   1.406       .  A
C2053      C2058   1.406       .  A
C2054      C2055   1.398       .  A
C2054      H2067   1.083       .  S
C2055      C2056   1.403       .  A
C2055      H2068   1.083       .  S
C2056      C2057   1.406       .  A
C2056      C2059   1.484       .  S
C2057      C2058   1.395       .  A
C2057      H2069   1.081       .  S
C2058      H2070   1.083       .  S
C2059      C2060   1.348       .  D
C2059      H2071   1.084       .  S
C2060      C2061   1.485       .  S
C2060      H2072   1.085   1_655  S
C2061      C2062   1.403   1_655  A
C2061      C2066   1.408       .  A
C2062      C2063   1.396       .  A
C2062      H2073   1.084       .  S
C2063      C2064   1.406       .  A
C2063      H2074   1.083       .  S
C2064      C2065   1.404   1_455  A
C2065      C2066   1.396       .  A
C2065      H2075   1.083       .  S
C2066      H2076   1.080       .  S
C2077      C2078   1.404       .  A
C2077      C2082   1.405       .  A
C2078      C2079   1.396       .  A
C2078      H2091   1.083   1_455  S
C2079      C2080   1.403       .  A
C2079      H2092   1.083       .  S
C2080      C2081   1.408       .  A
C2080      C2083   1.482       .  S
C2081      C2082   1.395       .  A
C2081      H2093   1.081       .  S
C2082      H2094   1.083       .  S
C2083      C2084   1.347       .  D
C2083      H2095   1.087       .  S
C2084      C2085   1.474       .  S
C2084      H2096   1.084       .  S
C2085      C2086   1.401       .  A
C2085      C2090   1.403       .  A
C2086      C2087   1.396       .  A
C2086      H2097   1.084       .  S
C2087      C2088   1.406       .  A
C2087      H2098   1.083       .  S
C2088      C2089   1.408       .  A
C2089      C2090   1.395       .  A
C2089      H2099   1.083       .  S
C2090      H2100   1.083       .  S
C2101      C2102   1.403       .  A
C2101      C2106   1.406       .  A
C2102      C2103   1.389       .  A
C2102      H2115   1.083   1_655  S
C2103      C2104   1.399       .  A
C2103      H2116   1.084   1_655  S
C2104      C2105   1.406       .  A
C2104      C2107   1.472       .  S
C2105      C2106   1.398       .  A
C2105      H2117   1.082       .  S
C2106      H2118   1.083       .  S
C2107      C2108   1.342       .  D
C2107      H2119   1.087   1_655  S
C2108      C2109   1.476       .  S
C2108      H2120   1.086       .  S
C2109      C2110   1.400       .  A
C2109      C2114   1.406       .  A
C2110      C2111   1.398       .  A
C2110      H2121   1.083       .  S
C2111      C2112   1.407       .  A
C2111      H2122   1.083       .  S
C2112      C2113   1.403       .  A
C2113      C2114   1.392       .  A
C2113      H2123   1.083       .  S
C2114      H2124   1.083       .  S
C2125      C2126   1.408       .  A
C2125      C2130   1.409       .  A
C2126      C2127   1.412       .  A
C2126      H2139   1.083       .  S
C2127      C2128   1.411       .  A
C2127      H2140   1.083       .  S
C2128      C2129   1.405       .  A
C2128      C2131   1.501       .  S
C2129      C2130   1.394       .  A
C2129      H2141   1.081       .  S
C2130      H2142   1.083   1_455  S
C2131      C2132   1.355       .  D
C2131      H2143   1.084       .  S
C2132      C2133   1.498       .  S
C2132      H2144   1.085       .  S
C2133      C2134   1.406       .  A
C2133      C2138   1.409       .  A
C2134      C2135   1.400       .  A
C2134      H2145   1.083       .  S
C2135      C2136   1.405       .  A
C2135      H2146   1.083       .  S
C2136      C2137   1.413       .  A
C2137      C2138   1.408       .  A
C2137      H2147   1.083       .  S
C2138      H2148   1.081       .  S
C2149      C2150   1.402       .  A
C2149      C2154   1.406       .  A
C2150      C2151   1.401       .  A
C2150      H2163   1.083       .  S
C2151      C2152   1.405       .  A
C2151      H2164   1.083       .  S
C2152      C2153   1.406       .  A
C2152      C2155   1.490       .  S
C2153      C2154   1.401       .  A
C2153      H2165   1.082       .  S
C2154      H2166   1.084       .  S
C2155      C2156   1.353       .  D
C2155      H2167   1.081       .  S
C2156      C2157   1.499       .  S
C2156      H2168   1.086       .  S
C2157      C2158   1.408       .  A
C2157      C2162   1.409       .  A
C2158      C2159   1.403       .  A
C2158      H2169   1.083       .  S
C2159      C2160   1.406       .  A
C2159      H2170   1.083       .  S
C2160      C2161   1.408       .  A
C2161      C2162   1.398       .  A
C2161      H2171   1.083       .  S
C2162      H2172   1.079       .  S
C2173      C2174   1.408       .  A
C2173      C2178   1.403       .  A
C2174      C2175   1.395       .  A
C2174      H2187   1.083       .  S
C2175      C2176   1.400       .  A
C2175      H2188   1.084       .  S
C2176      C2177   1.408       .  A
C2176      C2179   1.482       .  S
C2177      C2178   1.396       .  A
C2177      H2189   1.082       .  S
C2178      H2190   1.083       .  S
C2179      C2180   1.346       .  D
C2179      H2191   1.085       .  S
C2180      C2181   1.480       .  S
C2180      H2192   1.085       .  S
C2181      C2182   1.400       .  A
C2181      C2186   1.408       .  A
C2182      C2183   1.393       .  A
C2182      H2193   1.084       .  S
C2183      C2184   1.406       .  A
C2183      H2194   1.083       .  S
C2184      C2185   1.407       .  A
C2185      C2186   1.400       .  A
C2185      H2195   1.083       .  S
C2186      H2196   1.082       .  S
