geometry optimzed in LAMMPS
_audit_creation_date              2020-11-30 
_audit_creation_method            'lammps2cif' 
_symmetry_space_group_name_H-M    'P1' 
_symmetry_Int_Tables_number       1 
_symmetry_cell_setting            triclinic 
loop_ 
_symmetry_equiv_pos_as_xyz 
  x,y,z 
_cell_length_a                    58.1513229 
_cell_length_b                    58.073816801813855 
_cell_length_c                    38.646882377397105 
_cell_angle_alpha                 90.00505199095628 
_cell_angle_beta                  89.9512941042898 
_cell_angle_gamma                 90.55181160417338 
loop_ 
_atom_site_label 
_atom_site_type_symbol 
_atom_site_fract_x 
_atom_site_fract_y 
_atom_site_fract_z 
_atom_site_charge 
In1        In  0.25795405  0.60118955  0.41643052     1.36900
C2          C  0.27537856  0.57363957  0.46435285     0.78300
O3          O  0.23480576  0.57211896  0.39951939    -0.60200
O4          O  0.25374181  0.59042786  0.36106316    -0.51100
C5          C  0.22389031  0.63125933  0.42056390     0.71000
O6          O  0.22694610  0.61631992  0.44387237    -0.45900
C7          C  0.29354209  0.63008572  0.41083382     0.75700
O8          O  0.26096201  0.58903725  0.47159445    -0.57800
O9          O  0.29060629  0.61362150  0.38989133    -0.47900
O10         O  0.27999254  0.57169239  0.43261426    -0.54200
C11         C  0.23915067  0.57485552  0.36779555     0.85800
O12         O  0.23782524  0.63020404  0.39568699    -0.56100
O13         O  0.27883785  0.63102097  0.43470884    -0.59400
C14         C  0.08143527  0.78090597  0.32038454     0.03800
C15         C  0.08858815  0.80330540  0.32938727    -0.12300
C16         C  0.10921790  0.80696595  0.34774233     0.01300
C17         C  0.12288031  0.78782803  0.35640916    -0.10800
C18         C  0.11573359  0.76541294  0.34746519     0.03800
C19         C  0.09507055  0.76222001  0.32963244    -0.10300
H20         H  0.07787974  0.81786428  0.32299843     0.09400
H21         H  0.13942741  0.79029900  0.36864817     0.07000
H22         H  0.08955539  0.74492271  0.32271131     0.06800
C23         C  0.43487783  0.79660322  0.94795539     0.03800
C24         C  0.42233599  0.81922292  0.44077008    -0.12300
C25         C  0.39889012  0.82337094  0.43556300     0.01300
C26         C  0.38323130  0.80478926  0.43607401    -0.10800
C27         C  0.39078116  0.78222224  0.44118847     0.03800
C28         C  0.41422129  0.77837023  0.44731409    -0.10300
H29         H  0.43426291  0.83357658  0.43912606     0.09400
H30         H  0.36517338  0.80774601  0.43099887     0.07000
H31         H  0.42634557  0.76102537  0.95699662     0.06800
In32       In  0.24434722  0.97803001  0.38016249     1.36900
C33         C  0.26117444  0.00533281  0.42903251     0.78300
O34         O  0.25745254  0.94638860  0.40460858    -0.60200
O35         O  0.27915687  0.96231788  0.36712855    -0.51100
C36         C  0.20848930  0.94978638  0.37617332     0.71000
O37         O  0.21177245  0.96258885  0.40234243    -0.45900
C38         C  0.22954336  0.00434809  0.32889336     0.75700
O39         O  0.24367354  0.99269005  0.43423319    -0.57800
O40         O  0.24540065  0.98980557  0.32466733    -0.47900
O41         O  0.26858020  0.00541601  0.39835660    -0.54200
C42         C  0.27644908  0.94635605  0.38915416     0.85800
O43         O  0.22310843  0.95204004  0.35224513    -0.56100
O44         O  0.22281352  0.00675539  0.35977104    -0.59400
C45         C  0.91259705  0.78063560  0.27113843     0.03800
C46         C  0.89756296  0.79910513  0.27657583    -0.12300
C47         C  0.87415706  0.79519060  0.28393064     0.01300
C48         C  0.86573683  0.77253370  0.28468614    -0.10800
C49         C  0.88050686  0.75389039  0.28025920     0.03800
C50         C  0.90394234  0.75791679  0.27370136    -0.10300
H51         H  0.90419537  0.81651875  0.27448928     0.09400
H52         H  0.84763943  0.76932863  0.28979041     0.07000
H53         H  0.91507225  0.74327220  0.27069257     0.06800
In54       In  0.76103131  0.58141650  0.35760421     1.36900
C55         C  0.74158442  0.55300568  0.40260207     0.78300
O56         O  0.74761537  0.61090835  0.38758359    -0.60200
O57         O  0.73111487  0.60334487  0.33969399    -0.51100
C58         C  0.79862570  0.60711390  0.35501804     0.71000
O59         O  0.79489835  0.59358248  0.38016948    -0.45900
C60         C  0.77593441  0.55564695  0.30616806     0.75700
O61         O  0.75917266  0.56497786  0.40991622    -0.57800
O62         O  0.75903125  0.56903961  0.30250069    -0.47900
O63         O  0.73501666  0.55422820  0.37152345    -0.54200
C64         C  0.73234897  0.61626923  0.36608872     0.85800
O65         O  0.78316717  0.60724219  0.33214541    -0.56100
O66         O  0.78363312  0.55405279  0.33661784    -0.59400
C67         C  0.59745933  0.78953492  0.38154653     0.03800
C68         C  0.60532947  0.76664683  0.38163958    -0.12300
C69         C  0.62622112  0.76105060  0.36565328     0.01300
C70         C  0.63886678  0.77842340  0.34856333    -0.10800
C71         C  0.63099154  0.80113120  0.34741834     0.03800
C72         C  0.61036942  0.80657717  0.36433716    -0.10300
H73         H  0.59530034  0.75307953  0.39371897     0.09400
H74         H  0.65462110  0.77418497  0.33510233     0.07000
H75         H  0.60438122  0.82414576  0.36475927     0.06800
In76       In  0.74833786  0.97447873  0.27617075     1.36900
C77         C  0.76645686  0.00039768  0.22571253     0.78300
O78         O  0.72645218  0.00160484  0.30074237    -0.60200
O79         O  0.74442102  0.97910361  0.33401755    -0.51100
C80         C  0.71351569  0.94704977  0.25781278     0.71000
O81         O  0.73408089  0.94055464  0.25888106    -0.45900
C82         C  0.78315494  0.94778169  0.29495435     0.75700
O83         O  0.75625097  0.98155385  0.21967146    -0.57800
O84         O  0.78613960  0.96871934  0.28732137    -0.47900
O85         O  0.76640330  0.00636149  0.25699367    -0.54200
C86         C  0.73040315  0.99538675  0.33131083     0.85800
O87         O  0.71093232  0.96840429  0.26198656    -0.56100
O88         O  0.76249530  0.94115440  0.29461655    -0.59400
C89         C  0.02281944  0.37653515  0.18412573     0.03800
C90         C  0.04371216  0.38735085  0.19249254    -0.12300
C91         C  0.04439855  0.41040953  0.20287115     0.01300
C92         C  0.02384663  0.42258666  0.20544562    -0.10800
C93         C  0.00256514  0.41201151  0.19822650     0.03800
C94         C  0.00211926  0.38884409  0.18712505    -0.10300
H95         H  0.05957888  0.37792777  0.18945599     0.09400
H96         H  0.02446028  0.44051919  0.21329796     0.07000
H97         H  0.98599057  0.38044508  0.18083620     0.06800
In98       In  0.81443957  0.53040185  0.22592415     1.36900
C99         C  0.78883383  0.51114275  0.17642621     0.78300
O100        O  0.84652003  0.51383057  0.20682298    -0.60200
O101        O  0.82936210  0.49810665  0.24927541    -0.51100
C102        C  0.83949602  0.56914706  0.22644623     0.71000
O103        O  0.82565176  0.56456348  0.20210453    -0.45900
C104        C  0.78760426  0.54458241  0.27701197     0.75700
O105        O  0.80331004  0.52694800  0.17011983    -0.57800
O106        O  0.80371119  0.53048729  0.28149415    -0.47900
O107        O  0.78649756  0.50630068  0.20803446    -0.54200
C108        C  0.84619782  0.49772154  0.22866716     0.85800
O109        O  0.84063919  0.55381086  0.24939974    -0.56100
O110        O  0.78395122  0.55004965  0.24588837    -0.59400
C111        C  0.99774000  0.69988625  0.33061156     0.03800
C112        C  0.97718444  0.68953148  0.31857687    -0.12300
C113        C  0.97627192  0.66563120  0.31218063     0.01300
C114        C  0.99614303  0.65242373  0.31712583    -0.10800
C115        C  0.01678005  0.66276646  0.32814716     0.03800
C116        C  0.01726901  0.68633042  0.33532105    -0.10300
H117        H  0.96200612  0.69982546  0.31460250     0.09400
H118        H  0.99544095  0.63400222  0.31268960     0.07000
H119        H  0.03316315  0.69429037  0.34409697     0.06800
In120      In  0.20234372  0.54113625  0.29248026     1.36900
C121        C  0.22721048  0.56184048  0.34069638     0.78300
O122        O  0.23294942  0.52096220  0.27489690    -0.60200
O123        O  0.21535749  0.54164492  0.23805722    -0.51100
C124        C  0.17896664  0.50188657  0.28951717     0.71000
O125        O  0.19115289  0.50679204  0.31565930    -0.45900
C126        C  0.16778660  0.57060397  0.28979201     0.75700
O127        O  0.21519998  0.54408192  0.34698850    -0.57800
O128        O  0.18326946  0.57011158  0.26686835    -0.47900
O129        O  0.22733775  0.56827225  0.30950217    -0.54200
C130        C  0.23033728  0.52648499  0.24357062     0.85800
O131        O  0.17820702  0.51734531  0.26676356    -0.56100
O132        O  0.17046959  0.55655043  0.31430593    -0.59400
C133        C  0.98753498  0.86906608  0.29003163     0.03800
C134        C  0.96853532  0.87984554  0.27516758    -0.12300
C135        C  0.97042391  0.90165657  0.26015616     0.01300
C136        C  0.99194245  0.91283757  0.25981376    -0.10800
C137        C  0.01145765  0.90211955  0.27369115     0.03800
C138        C  0.00920466  0.88011957  0.28883427    -0.10300
H139        H  0.95187413  0.87128071  0.27588669     0.09400
H140        H  0.99359822  0.93011736  0.24956716     0.07000
H141        H  0.02407398  0.87193624  0.30000022     0.06800
C142        C  0.00705257  0.20470956  0.13721335     0.03800
C143        C  0.98788932  0.19028352  0.13257125    -0.12300
C144        C  0.98903113  0.16671700  0.13960996     0.01300
C145        C  0.00981618  0.15731478  0.15133935    -0.10800
C146        C  0.02942017  0.17149027  0.15589865     0.03800
C147        C  0.02790637  0.19514739  0.14853850    -0.10300
H148        H  0.97172570  0.19755599  0.12404271     0.09400
H149        H  0.01082383  0.13894013  0.15574825     0.07000
H150        H  0.04277976  0.20607492  0.15297953     0.06800
In151      In  0.19060705  0.03012880  0.24908362     1.36900
C152        C  0.21691960  0.04715249  0.19913219     0.78300
O153        O  0.16462223  0.05182485  0.22212346    -0.60200
O154        O  0.17280955  0.06059787  0.27398212    -0.51100
C155        C  0.16256726  0.99339432  0.24853677     0.71000
O156        O  0.17852352  0.99595673  0.22669016    -0.45900
C157        C  0.21782202  0.01562703  0.29984935     0.75700
O158        O  0.20240846  0.03122987  0.19388150    -0.57800
O159        O  0.20332390  0.03143398  0.30412320    -0.47900
O160        O  0.21933639  0.05302307  0.23039710    -0.54200
C161        C  0.16109539  0.06506477  0.24732419     0.85800
O162        O  0.16092951  0.00965164  0.26992316    -0.56100
O163        O  0.21972696  0.00863470  0.26908811    -0.59400
In164      In  0.80784556  0.03400583  0.15535993     1.40100
C165        C  0.78189751  0.05106734  0.10577734     0.78300
O166        O  0.78284527  0.00571035  0.16931668    -0.60200
O167        O  0.78868848  0.03269054  0.20571748    -0.51100
C168        C  0.83892936  0.00149870  0.15751588     0.71000
O169        O  0.82763417  0.00527560  0.13017160    -0.45900
C170        C  0.83912118  0.06735760  0.16265957     0.75700
O171        O  0.79569184  0.03482336  0.10029685    -0.57800
O172        O  0.82409086  0.06332978  0.18558745    -0.47900
O173        O  0.78070065  0.05780540  0.13676127    -0.54200
C174        C  0.77913749  0.01351844  0.19927094     0.85800
O175        O  0.83378271  0.01395087  0.18300823    -0.56100
O176        O  0.83706698  0.05537279  0.13566128    -0.59400
C177        C  0.51018859  0.69659179  0.42502789     0.03800
C178        C  0.53051344  0.68573922  0.43575548    -0.12300
C179        C  0.52958012  0.66623514  0.45744814     0.01300
C180        C  0.50814751  0.65784091  0.46853004    -0.10800
C181        C  0.48770964  0.66860741  0.45841419     0.03800
C182        C  0.48892281  0.68790560  0.43679875    -0.10300
H183        H  0.54695993  0.69283234  0.42777719     0.09400
H184        H  0.50762781  0.64246956  0.48431143     0.07000
H185        H  0.47305893  0.69644653  0.43022028     0.06800
In186      In  0.69917940  0.52396318  0.47561981     1.36900
C187        C  0.72685158  0.50792425  0.02654232     0.78300
O188        O  0.67357316  0.50028446  0.00249326    -0.60200
O189        O  0.68436764  0.49215148  0.45006012    -0.51100
C190        C  0.66927698  0.55832134  0.46928528     0.71000
O191        O  0.68126541  0.55611163  0.49641396    -0.45900
C192        C  0.72826349  0.54066745  0.42901342     0.75700
O193        O  0.71151403  0.52267360  0.03294912    -0.57800
O194        O  0.71397342  0.52486021  0.42183651    -0.47900
O195        O  0.72901300  0.50258297  0.99504164    -0.54200
C196        C  0.67215265  0.48688811  0.97688542     0.85800
O197        O  0.67264301  0.54319047  0.44668020    -0.56100
O198        O  0.72878402  0.54662855  0.46040833    -0.59400
C199        C  0.50060075  0.35945948  0.06615409     0.03800
C200        C  0.52370834  0.36517079  0.05873721    -0.12300
C201        C  0.52987254  0.38746311  0.04809942     0.01300
C202        C  0.51278689  0.40431159  0.04543275    -0.10800
C203        C  0.48967495  0.39898729  0.05240375     0.03800
C204        C  0.48371553  0.37643233  0.06265031    -0.10300
H205        H  0.53695248  0.35221152  0.06004942     0.09400
H206        H  0.51750907  0.42177910  0.03834512     0.07000
H207        H  0.46605917  0.37202652  0.06889080     0.06800
In208      In  0.31456354  0.53705920  0.04151169     1.36900
C209        C  0.28704038  0.52053284  0.09076236     0.78300
O210        O  0.28742476  0.56567988  0.52232114    -0.60200
O211        O  0.29936550  0.54289045  0.48325201    -0.51100
C212        C  0.34641666  0.57056678  0.54055344     0.71000
O213        O  0.33118323  0.56628788  0.07162601    -0.45900
C214        C  0.34250815  0.50169006  0.03272502     0.75700
O215        O  0.30424343  0.53316686  0.09707735    -0.57800
O216        O  0.32592606  0.50768057  0.50795769    -0.47900
O217        O  0.28302587  0.51733516  0.05904926    -0.54200
C218        C  0.28724500  0.56009615  0.49076667     0.85800
O219        O  0.34193683  0.55912927  0.51367131    -0.56100
O220        O  0.34449207  0.51603877  0.05691825    -0.59400
C221        C  0.50699894  0.19108963  0.03501994     0.03800
C222        C  0.52756332  0.18334319  0.02033306    -0.12300
C223        C  0.52888932  0.16188339  0.00434260     0.01300
C224        C  0.50920279  0.14778497  0.00293985    -0.10800
C225        C  0.48822770  0.15524170  0.01676959     0.03800
C226        C  0.48712368  0.17702439  0.03292841    -0.10300
H227        H  0.54295770  0.19402293  0.02186460     0.09400
H228        H  0.51020603  0.13068879  0.99186996     0.07000
H229        H  0.47108604  0.18267202  0.04418726     0.06800
C230        C  0.48164755  0.86284870  0.38512355     0.03800
C231        C  0.46276530  0.87631158  0.39495778    -0.12300
C232        C  0.46562890  0.89986293  0.40260901     0.01300
C233        C  0.48771779  0.90981431  0.40051014    -0.10800
C234        C  0.50679258  0.89643928  0.39141181     0.03800
C235        C  0.50364610  0.87310164  0.38375774    -0.10300
H236        H  0.44579539  0.86849417  0.39581976     0.09400
H237        H  0.49000765  0.92803690  0.40559852     0.07000
H238        H  0.51866096  0.86297881  0.37784215     0.06800
In239      In  0.69252538  0.02104485  0.41214124     1.36900
C240        C  0.71841253  0.00545398  0.36094698     0.78300
O241        O  0.71963054  0.04670378  0.42751290    -0.60200
O242        O  0.70750426  0.03073207  0.96079673    -0.51100
C243        C  0.66201504  0.05454906  0.41527381     0.71000
O244        O  0.67314170  0.05048394  0.38785527    -0.45900
C245        C  0.66192102  0.98712139  0.41639347     0.75700
O246        O  0.70593334  0.02300202  0.35797683    -0.57800
O247        O  0.67816443  0.98915916  0.43792375    -0.47900
O248        O  0.71867931  0.99653991  0.39074445    -0.54200
C249        C  0.72099175  0.04732030  0.95416580     0.85800
O250        O  0.66694344  0.05111725  0.93344292    -0.56100
O251        O  0.66217362  0.00171234  0.39226702    -0.59400
In252      In  0.30262508  0.03258484  0.50460155     1.36900
C253        C  0.27374943  0.01717213  0.45679934     0.78300
O254        O  0.32762676  0.01080767  0.47656829    -0.60200
O255        O  0.31695829  0.99880954  0.52588564    -0.51100
C256        C  0.33310738  0.06286488  0.99311367     0.71000
O257        O  0.31762091  0.06480395  0.47994092    -0.45900
C258        C  0.27504193  0.04759772  0.04596805     0.75700
O259        O  0.28900410  0.03224802  0.45054906    -0.57800
O260        O  0.28898627  0.03149558  0.05213512    -0.47900
O261        O  0.27192926  0.01137518  0.48820396    -0.54200
C262        C  0.32902208  0.99526666  0.49912785     0.85800
O263        O  0.33277518  0.04781735  0.01665505    -0.56100
O264        O  0.27396220  0.05356677  0.01464955    -0.59400
In265      In  0.25321776  0.48421577  0.16674480     1.36900
C266        C  0.24114296  0.51372330  0.21533935     0.78300
O267        O  0.28156096  0.50754453  0.14876633    -0.60200
O268        O  0.25491144  0.49892789  0.11301025    -0.51100
C269        C  0.28086846  0.44827128  0.16322747     0.71000
O270        O  0.28038788  0.46109898  0.18969492    -0.45900
C271        C  0.21492435  0.45917994  0.16932358     0.75700
O272        O  0.25686602  0.49917762  0.22017814    -0.57800
O273        O  0.21900441  0.47289220  0.14458993    -0.47900
O274        O  0.23326289  0.51446130  0.18495997    -0.54200
C275        C  0.27389797  0.50909466  0.11829540     0.85800
O276        O  0.26777447  0.45433338  0.13899311    -0.56100
O277        O  0.22998644  0.45908462  0.19273601    -0.59400
C278        C  0.40686771  0.29157533  0.54393947     0.03800
C279        C  0.39324533  0.31075251  0.55100960    -0.12300
C280        C  0.37119397  0.30814064  0.56501123     0.01300
C281        C  0.36254443  0.28597571  0.57214414    -0.10800
C282        C  0.37591232  0.26641598  0.56496969     0.03800
C283        C  0.39804353  0.26939023  0.55091589    -0.10300
H284        H  0.39987110  0.32790862  0.54564958     0.09400
H285        H  0.34513191  0.28405649  0.58173776     0.07000
H286        H  0.40843623  0.25435148  0.54623617     0.06800
In287      In  0.24383326  0.08701911  0.12116680     1.36900
C288        C  0.22828004  0.05956804  0.17077750     0.78300
O289        O  0.22319582  0.11447842  0.14658538    -0.60200
O290        O  0.21070811  0.10158278  0.09875294    -0.51100
C291        C  0.27761165  0.11813329  0.12077164     0.71000
O292        O  0.27530872  0.10358220  0.14485203    -0.45900
C293        C  0.26228968  0.05984584  0.07316917     0.75700
O294        O  0.24428612  0.07403970  0.17581104    -0.57800
O295        O  0.24618454  0.07364547  0.06652965    -0.47900
O296        O  0.22137398  0.05802942  0.13987013    -0.54200
C297        C  0.20784302  0.11542520  0.12368709     0.85800
O298        O  0.26292794  0.11638877  0.09690846    -0.56100
O299        O  0.26774636  0.05872639  0.10469618    -0.59400
C300        C  0.08811173  0.28669425  0.20816511     0.03800
C301        C  0.10186103  0.30663664  0.20916235    -0.12300
C302        C  0.12583711  0.30539711  0.20585600     0.01300
C303        C  0.13607631  0.28375432  0.20210465    -0.10800
C304        C  0.12260188  0.26359704  0.19947689     0.03800
C305        C  0.09853306  0.26516602  0.20244270    -0.10300
H306        H  0.09379539  0.32313457  0.21346413     0.09400
H307        H  0.15463577  0.28265491  0.20020214     0.07000
H308        H  0.08813069  0.24967841  0.20053531     0.06800
C309        C  0.91964404  0.26892974  0.15697601     0.03800
C310        C  0.91034800  0.24854044  0.14343192    -0.12300
C311        C  0.88924349  0.24829793  0.12638049     0.01300
C312        C  0.87699588  0.26889128  0.12329296    -0.10800
C313        C  0.88599329  0.28969719  0.13632687     0.03800
C314        C  0.90747834  0.28968564  0.15331126    -0.10300
H315        H  0.91972198  0.23257588  0.14616362     0.09400
H316        H  0.86017230  0.26881096  0.11132847     0.07000
H317        H  0.91457686  0.30555222  0.16357003     0.06800
In318      In  0.74983180  0.08781236  0.02994448     1.36900
C319        C  0.76920896  0.06243293  0.07815570     0.78300
O320        O  0.72871864  0.05738345  0.01290684    -0.60200
O321        O  0.74764441  0.07586650  0.97468026    -0.51100
C322        C  0.71366847  0.11492621  0.03927698     0.71000
O323        O  0.71772063  0.09816061  0.05893554    -0.45900
C324        C  0.78468997  0.11765941  0.02690518     0.75700
O325        O  0.75350149  0.07660848  0.08462126    -0.57800
O326        O  0.77794377  0.10689513  0.00034486    -0.47900
O327        O  0.77408901  0.06003380  0.04648795    -0.54200
C328        C  0.73329273  0.06003636  0.98126648     0.85800
O329        O  0.72773630  0.11732537  0.01474417    -0.56100
O330        O  0.77356116  0.11316285  0.05400895    -0.59400
C331        C  0.57965662  0.28217354  0.52839544     0.03800
C332        C  0.58805935  0.30396813  0.53836497    -0.12300
C333        C  0.61136290  0.30711961  0.54668992     0.01300
C334        C  0.62634031  0.28825428  0.54468301    -0.10800
C335        C  0.61819221  0.26634547  0.53501148     0.03800
C336        C  0.59476460  0.26356401  0.52691511    -0.10300
H337        H  0.57653191  0.31844372  0.54030710     0.09400
H338        H  0.64451664  0.29067397  0.54980356     0.07000
H339        H  0.58808487  0.24711209  0.51824069     0.06800
In340      In  0.75893626  0.46987945  0.10181661     1.36900
C341        C  0.77684952  0.49804558  0.14923349     0.78300
O342        O  0.78003974  0.44143738  0.12334938    -0.60200
O343        O  0.78986069  0.45449335  0.07429782    -0.51100
C344        C  0.72343671  0.44078394  0.10708205     0.71000
O345        O  0.72910556  0.45419725  0.13137829    -0.45900
C346        C  0.73984243  0.49620218  0.05375398     0.75700
O347        O  0.76098019  0.48377133  0.15595051    -0.57800
O348        O  0.75615530  0.48268742  0.04713790    -0.47900
O349        O  0.78266366  0.49893623  0.11778838    -0.54200
C350        C  0.79376468  0.44024327  0.09821921     0.85800
O351        O  0.73594416  0.44226177  0.08052811    -0.56100
O352        O  0.73437686  0.49742750  0.08528224    -0.59400
C353        C  0.67805663  0.39505769  0.08185428     0.19400
C354        C  0.66699557  0.38929275  0.05072159    -0.18700
C355        C  0.64899431  0.37392636  0.55328060    -0.11000
C356        C  0.64864982  0.35617842  0.07798554     0.21700
C357        C  0.65918885  0.36222195  0.10937118    -0.20300
C358        C  0.67364480  0.38155966  0.11142140    -0.11100
C359        C  0.63644612  0.33377465  0.07511862    -0.15300
C360        C  0.62003488  0.33062140  0.55477971    -0.29200
C361        C  0.69582361  0.41359063  0.08132808    -0.03400
C362        C  0.70399448  0.42437865  0.10964644    -0.40000
H363        H  0.66295054  0.40570160  0.53395394     0.12800
H364        H  0.63948634  0.37089942  0.52963962     0.12400
H365        H  0.65678978  0.35152014  0.13207490     0.11900
H366        H  0.68222040  0.38508027  0.13573164     0.12100
H367        H  0.64229390  0.31979340  0.09153274     0.14900
H368        H  0.61126577  0.34503219  0.54291833     0.13600
H369        H  0.70282088  0.41835584  0.05618482     0.11300
H370        H  0.69652802  0.42122632  0.13495197     0.13300
C371        C  0.64398542  0.20484262  0.03591708     0.19400
C372        C  0.64036989  0.18433867  0.05450450    -0.18700
C373        C  0.65573922  0.16601035  0.05138514    -0.11000
C374        C  0.67487638  0.16786822  0.02917867     0.21700
C375        C  0.67813902  0.18823383  0.01018858    -0.20300
C376        C  0.66292057  0.20648148  0.01345933    -0.11100
C377        C  0.69184248  0.14922699  0.02413648    -0.15300
C378        C  0.69446872  0.13090808  0.04501017    -0.29200
C379        C  0.62854850  0.22467500  0.53103552    -0.03400
C380        C  0.63483338  0.24710268  0.53197511    -0.40000
H381        H  0.62567722  0.18255594  0.07157201     0.12800
H382        H  0.65231654  0.15046443  0.06594122     0.12400
H383        H  0.69255773  0.19004640  0.99264245     0.11900
H384        H  0.66582916  0.22168880  0.99771486     0.12100
H385        H  0.70376462  0.15139972  0.00267352     0.14900
H386        H  0.68349504  0.12818309  0.06734270     0.13600
H387        H  0.61063530  0.21988667  0.53453026     0.11300
H388        H  0.65294942  0.25173146  0.53163363     0.13300
C389        C  0.82927090  0.16072186  0.06158113     0.19400
C390        C  0.84191805  0.16198644  0.09238541    -0.18700
C391        C  0.85414621  0.18192615  0.10097344    -0.11000
C392        C  0.85405801  0.20112333  0.07870932     0.21700
C393        C  0.84212997  0.19951338  0.04722482    -0.20300
C394        C  0.82986748  0.17949259  0.03862759    -0.11100
C395        C  0.86437074  0.22362131  0.08881383    -0.15300
C396        C  0.88015293  0.22585027  0.11401844    -0.29200
C397        C  0.81316848  0.14108916  0.05708442    -0.03400
C398        C  0.80368494  0.13460013  0.02684585    -0.40000
H399        H  0.84151224  0.14782751  0.11065781     0.12800
H400        H  0.86250826  0.18246603  0.12591920     0.12400
H401        H  0.84163971  0.21409291  0.02976185     0.11900
H402        H  0.81988986  0.17932697  0.01501339     0.12100
H403        H  0.85873990  0.23877102  0.07486511     0.14900
H404        H  0.88743801  0.21058427  0.12565102     0.13600
H405        H  0.80809342  0.13199414  0.08053161     0.11300
H406        H  0.80926666  0.14207424  0.00249044     0.13300
C407        C  0.83153962  0.38866098  0.12355269     0.19400
C408        C  0.82542493  0.36869846  0.14188057    -0.18700
C409        C  0.84078172  0.35058069  0.14525770    -0.11000
C410        C  0.86282005  0.35194042  0.13039875     0.21700
C411        C  0.86924123  0.37209941  0.11253334    -0.20300
C412        C  0.85364507  0.39029154  0.10881448    -0.11100
C413        C  0.87910832  0.33243249  0.13365669    -0.15300
C414        C  0.87142587  0.31047243  0.13323715    -0.29200
C415        C  0.81464391  0.40764673  0.12269460    -0.03400
C416        C  0.81260965  0.42325417  0.09713690    -0.40000
H417        H  0.80860803  0.36712604  0.15381743     0.12800
H418        H  0.83546112  0.33564096  0.16010763     0.12400
H419        H  0.88622204  0.37364936  0.10118422     0.11900
H420        H  0.85904935  0.40570795  0.09520127     0.12100
H421        H  0.89742002  0.33615286  0.13466156     0.14900
H422        H  0.85322689  0.30735445  0.12868610     0.13600
H423        H  0.80214991  0.40785348  0.14365796     0.11300
H424        H  0.82408254  0.42300286  0.07495297     0.13300
C425        C  0.02303901  0.27526185  0.22150441     0.19400
C426        C  0.00951032  0.25546129  0.21660097    -0.18700
C427        C  0.98595131  0.25723910  0.21064769    -0.11000
C428        C  0.97544987  0.27898321  0.20921865     0.21700
C429        C  0.98851605  0.29858303  0.21764926    -0.20300
C430        C  0.01214896  0.29679616  0.22368408    -0.11100
C431        C  0.95154051  0.28179128  0.19648349    -0.15300
C432        C  0.94272708  0.26729411  0.17275553    -0.29200
C433        C  0.04841246  0.27272268  0.22228585    -0.03400
C434        C  0.06288783  0.28950985  0.21178132    -0.40000
H435        H  0.01736667  0.23862393  0.21564641     0.12800
H436        H  0.97619596  0.24156422  0.20613204     0.12400
H437        H  0.98071183  0.31544917  0.21758349     0.11900
H438        H  0.02183943  0.31236308  0.22912044     0.12100
H439        H  0.94184471  0.29664667  0.20487213     0.14900
H440        H  0.95299432  0.25293319  0.16407818     0.13600
H441        H  0.05514224  0.25596462  0.22907192     0.11300
H442        H  0.05610071  0.30623719  0.20511058     0.13300
C443        C  0.13955555  0.20188180  0.17135829     0.19400
C444        C  0.13955827  0.19064189  0.13913434    -0.18700
C445        C  0.15381943  0.17160882  0.13324231    -0.11000
C446        C  0.16800788  0.16316990  0.15984703     0.21700
C447        C  0.16683956  0.17368775  0.19257161    -0.20300
C448        C  0.15287571  0.19277199  0.19826699    -0.11100
C449        C  0.18530327  0.14455366  0.15488400    -0.15300
C450        C  0.18841885  0.13182268  0.12598680    -0.29200
C451        C  0.12610773  0.22336998  0.17637210    -0.03400
C452        C  0.13444289  0.24116072  0.19521117    -0.40000
H453        H  0.12919975  0.19716157  0.11809633     0.12800
H454        H  0.15404233  0.16406951  0.10767388     0.12400
H455        H  0.17724633  0.16745221  0.21375881     0.11900
H456        H  0.15269556  0.20055390  0.22373556     0.12100
H457        H  0.19677330  0.14153905  0.17656801     0.14900
H458        H  0.17717961  0.13355173  0.10384205     0.13600
H459        H  0.11009607  0.22528372  0.16223952     0.11300
H460        H  0.15161337  0.23988722  0.20608566     0.13300
C461        C  0.46736506  0.28356225  0.50463314     0.19400
C462        C  0.48169767  0.26433068  0.50431362    -0.18700
C463        C  0.50556961  0.26711976  0.50349490    -0.11000
C464        C  0.51556020  0.28933926  0.50277675     0.21700
C465        C  0.50108725  0.30835311  0.49880386    -0.20300
C466        C  0.47719162  0.30555222  0.49983197    -0.11100
C467        C  0.54062038  0.29362309  0.50802634    -0.15300
C468        C  0.55505653  0.27768984  0.52062737    -0.29200
C469        C  0.44263845  0.28014029  0.51272426    -0.03400
C470        C  0.43060916  0.29563666  0.53104390    -0.40000
H471        H  0.47448295  0.24714569  0.50701907     0.12800
H472        H  0.51587421  0.25178482  0.50448651     0.12400
H473        H  0.50840052  0.32529223  0.99854510     0.11900
H474        H  0.46653889  0.32068678  0.49819737     0.12100
H475        H  0.54711562  0.31088095  0.50291839     0.14900
H476        H  0.54894764  0.26033974  0.52560969     0.13600
H477        H  0.43489495  0.26362444  0.50621510     0.11300
H478        H  0.43858186  0.31202302  0.53772265     0.13300
C479        C  0.33935574  0.21318181  0.09342902     0.19400
C480        C  0.33581389  0.20142045  0.12469417    -0.18700
C481        C  0.32306453  0.18086444  0.12551621    -0.11000
C482        C  0.31329915  0.17184161  0.09497712     0.21700
C483        C  0.31699179  0.18364409  0.06368882    -0.20300
C484        C  0.33759121  0.19924640  0.56747336    -0.11100
C485        C  0.29760442  0.15145119  0.09490727    -0.15300
C486        C  0.29556281  0.13625459  0.12107239    -0.29200
C487        C  0.35132300  0.23583259  0.09366549    -0.03400
C488        C  0.36672791  0.24263987  0.56960685    -0.40000
H489        H  0.34270033  0.20832906  0.14862186     0.12800
H490        H  0.32023624  0.17273077  0.15030460     0.12400
H491        H  0.32298158  0.16797724  0.54733714     0.11900
H492        H  0.34359612  0.20457025  0.54219442     0.12100
H493        H  0.28672363  0.14913683  0.07220913     0.14900
H494        H  0.30667109  0.13731325  0.14359666     0.13600
H495        H  0.34912989  0.24679758  0.11609656     0.11300
H496        H  0.37371262  0.22928072  0.55308404     0.13300
C497        C  0.17576725  0.40846610  0.19628035     0.19400
C498        C  0.17830255  0.39170913  0.22217712    -0.18700
C499        C  0.16472287  0.37174511  0.22222983    -0.11000
C500        C  0.14810244  0.36815157  0.19639664     0.21700
C501        C  0.14486088  0.38527178  0.17128570    -0.20300
C502        C  0.15863216  0.40517695  0.17098709    -0.11100
C503        C  0.13344479  0.34708946  0.19560360    -0.15300
C504        C  0.14056071  0.32643907  0.20719173    -0.29200
C505        C  0.19215323  0.42829652  0.19618095    -0.03400
C506        C  0.19484302  0.44347079  0.17006471    -0.40000
H507        H  0.19116994  0.39385521  0.24221329     0.12800
H508        H  0.16714742  0.35928544  0.24266806     0.12400
H509        H  0.13186863  0.38305407  0.15145710     0.11900
H510        H  0.15570090  0.41773898  0.15092645     0.12100
H511        H  0.11673694  0.34842258  0.18326122     0.14900
H512        H  0.15813144  0.32455016  0.21617663     0.13600
H513        H  0.20404153  0.42931897  0.21785122     0.11300
H514        H  0.18366509  0.44322272  0.14767070     0.13300
C515        C  0.33071314  0.35184013  0.11160446     0.19400
C516        C  0.32370508  0.35744465  0.14529395    -0.18700
C517        C  0.31313195  0.37856017  0.15201837    -0.11000
C518        C  0.30914172  0.39424390  0.12499502     0.21700
C519        C  0.31539079  0.38815995  0.09112117    -0.20300
C520        C  0.32607245  0.36719671  0.08448430    -0.11100
C521        C  0.29708504  0.41638006  0.13019962    -0.15300
C522        C  0.29505987  0.42740619  0.16071097    -0.29200
C523        C  0.34292429  0.32997491  0.10510931    -0.03400
C524        C  0.35717065  0.32893573  0.57013570    -0.40000
H525        H  0.32676394  0.34567408  0.16641312     0.12800
H526        H  0.30779136  0.38229075  0.17826725     0.12400
H527        H  0.30115386  0.39478993  0.56456817     0.11900
H528        H  0.32133816  0.35892200  0.55363410     0.12100
H529        H  0.28948063  0.42409862  0.10736082     0.14900
H530        H  0.30341979  0.42107091  0.18385003     0.13600
H531        H  0.33851459  0.31509582  0.12084358     0.11300
H532        H  0.35770863  0.34193006  0.54993205     0.13300
C533        C  0.60526202  0.95431165  0.40048410     0.19400
C534        C  0.59267074  0.94816748  0.37088775    -0.18700
C535        C  0.57131534  0.93712808  0.37386649    -0.11000
C536        C  0.56196663  0.93228302  0.40665926     0.21700
C537        C  0.57452169  0.93839050  0.43628516    -0.20300
C538        C  0.59606103  0.94915602  0.43331175    -0.11100
C539        C  0.53861612  0.92213196  0.41049233    -0.15300
C540        C  0.53012442  0.90659219  0.38803151    -0.29200
C541        C  0.62657968  0.96822391  0.39612516    -0.03400
C542        C  0.64332744  0.96987990  0.42002675    -0.40000
H543        H  0.59919684  0.95231636  0.34533898     0.12800
H544        H  0.56179048  0.93317790  0.35053589     0.12400
H545        H  0.56752129  0.93503789  0.46180481     0.11900
H546        H  0.60492360  0.95425028  0.45670871     0.12100
H547        H  0.52853059  0.92685037  0.43305643     0.14900
H548        H  0.54109676  0.90001971  0.36758491     0.13600
H549        H  0.62820217  0.97812262  0.37233601     0.11300
H550        H  0.64283629  0.95942402  0.44328741     0.13300
C551        C  0.40742143  0.92321003  0.43623967     0.19400
C552        C  0.39426939  0.91953982  0.46633411    -0.18700
C553        C  0.37675407  0.93487941  0.47564190    -0.11000
C554        C  0.37193800  0.95403093  0.45461329     0.21700
C555        C  0.38438961  0.95689523  0.42370550    -0.20300
C556        C  0.40188145  0.94176719  0.41462461    -0.11100
C557        C  0.35455627  0.97185784  0.46323086    -0.15300
C558        C  0.34389211  0.97486742  0.49397820    -0.29200
C559        C  0.42667869  0.90747686  0.42762532    -0.03400
C560        C  0.44580508  0.91486307  0.41101701    -0.40000
H561        H  0.39786463  0.90502700  0.48300734     0.12800
H562        H  0.36717525  0.93167913  0.49916732     0.12400
H563        H  0.38083442  0.97121209  0.40662276     0.11900
H564        H  0.41099492  0.94462739  0.39054482     0.12100
H565        H  0.35119097  0.98429939  0.44289150     0.14900
H566        H  0.34649856  0.96309947  0.51535592     0.13600
H567        H  0.42572547  0.88990086  0.43711249     0.11300
H568        H  0.44766284  0.93304017  0.40490815     0.13300
C569        C  0.57734102  0.12818805  0.95949027     0.19400
C570        C  0.58087052  0.11800662  0.92701999    -0.18700
C571        C  0.60132670  0.10647107  0.91985811    -0.11000
C572        C  0.61850098  0.10478916  0.94529001     0.21700
C573        C  0.61514349  0.11532272  0.97748237    -0.20300
C574        C  0.59481534  0.12692466  0.98458345    -0.11100
C575        C  0.63848146  0.08954075  0.94110029    -0.15300
C576        C  0.64770053  0.08375905  0.91045361    -0.29200
C577        C  0.55457255  0.13806823  0.96765346    -0.03400
C578        C  0.55168254  0.15395420  0.99249737    -0.40000
H579        H  0.56753934  0.11846032  0.90751752     0.12800
H580        H  0.59927109  0.08712947  0.40611154     0.12400
H581        H  0.62798069  0.11388220  0.99766103     0.11900
H582        H  0.59248902  0.13382158  0.01031424     0.12100
H583        H  0.64539889  0.08197551  0.96459528     0.14900
H584        H  0.63841911  0.08078497  0.39448746     0.13600
H585        H  0.53984494  0.13196846  0.95290054     0.11300
H586        H  0.56666255  0.16175043  0.00470263     0.13300
C587        C  0.38901354  0.09756565  0.01052040     0.19400
C588        C  0.40945614  0.09178735  0.02758739    -0.18700
C589        C  0.42825752  0.10693280  0.02786767    -0.11000
C590        C  0.42705622  0.12841048  0.01115396     0.21700
C591        C  0.40663414  0.13424287  0.99401655    -0.20300
C592        C  0.38780553  0.11897392  0.99353813    -0.11100
C593        C  0.44639952  0.14538626  0.01264332    -0.15300
C594        C  0.46845190  0.13891424  0.01581574    -0.29200
C595        C  0.36925905  0.08111564  0.01255144    -0.03400
C596        C  0.35138376  0.08067244  0.99039605    -0.40000
H597        H  0.41082335  0.07551647  0.04110800     0.12800
H598        H  0.44342343  0.10200396  0.04219057     0.12400
H599        H  0.40519821  0.15074301  0.98116128     0.11900
H600        H  0.37222100  0.12430948  0.98070394     0.12100
H601        H  0.44248384  0.16351251  0.00952460     0.14900
H602        H  0.47249857  0.12070866  0.01534888     0.13600
H603        H  0.36996970  0.06804979  0.03266440     0.11300
H604        H  0.35049218  0.09278388  0.96911515     0.13300
C605        C  0.49515470  0.24726435  0.08559754     0.19400
C606        C  0.47627376  0.26205880  0.08687952    -0.18700
C607        C  0.47969497  0.28587604  0.09040351    -0.11000
C608        C  0.50212785  0.29515149  0.09295979     0.21700
C609        C  0.52062574  0.27999246  0.09604390    -0.20300
C610        C  0.51720207  0.25631335  0.09259586    -0.11100
C611        C  0.50744448  0.32020001  0.09007506    -0.15300
C612        C  0.49329871  0.33560485  0.07535791    -0.29200
C613        C  0.49208262  0.22325346  0.07290294    -0.03400
C614        C  0.50786037  0.21414349  0.05153897    -0.40000
H615        H  0.45902416  0.25540813  0.08250723     0.12800
H616        H  0.46484579  0.29688609  0.08983087     0.12400
H617        H  0.53801529  0.28655102  0.09904743     0.11900
H618        H  0.53205339  0.24520298  0.09358211     0.12100
H619        H  0.52461864  0.32571074  0.09761532     0.14900
H620        H  0.47591416  0.33054390  0.06835553     0.13600
H621        H  0.47620208  0.21405247  0.07872923     0.11300
H622        H  0.52296456  0.22450993  0.04532493     0.13300
C623        C  0.39750390  0.46613839  0.04182560     0.19400
C624        C  0.41972073  0.47192854  0.05316701    -0.18700
C625        C  0.43705326  0.45547516  0.05384204    -0.11000
C626        C  0.43251502  0.43272184  0.04297236     0.21700
C627        C  0.41029624  0.42704594  0.03131026    -0.20300
C628        C  0.39293986  0.44352473  0.03071151    -0.11100
C629        C  0.44991619  0.41411243  0.04483356    -0.15300
C630        C  0.47255217  0.41778400  0.05012992    -0.29200
C631        C  0.37937801  0.48376839  0.04461330    -0.03400
C632        C  0.35925068  0.48317775  0.02745901    -0.40000
H633        H  0.42359864  0.48920964  0.06218367     0.12800
H634        H  0.45362757  0.46068444  0.06385011     0.12400
H635        H  0.40622275  0.40963275  0.02312885     0.11900
H636        H  0.37588900  0.43823824  0.02263241     0.12100
H637        H  0.44372875  0.39663619  0.04072091     0.14900
H638        H  0.47926030  0.43523094  0.05144701     0.13600
H639        H  0.38305412  0.49833192  0.06144784     0.11300
H640        H  0.35536796  0.46978441  0.00878638     0.13300
C641        C  0.62619050  0.44264038  0.00497403     0.19400
C642        C  0.62158934  0.42981716  0.03502461    -0.18700
C643        C  0.60109768  0.41715015  0.03834587    -0.11000
C644        C  0.58458898  0.41736476  0.01170117     0.21700
C645        C  0.58974718  0.42928088  0.98100879    -0.20300
C646        C  0.61030989  0.44174474  0.97757688    -0.11100
C647        C  0.56081940  0.40815591  0.01645550    -0.15300
C648        C  0.55441568  0.39327005  0.04147100    -0.29200
C649        C  0.64587650  0.45914781  0.00485958    -0.03400
C650        C  0.65587427  0.46726946  0.97583927    -0.40000
H651        H  0.63347679  0.43036155  0.05659681     0.12800
H652        H  0.59776484  0.40847988  0.06260437     0.12400
H653        H  0.57732764  0.42984631  0.96015851     0.11900
H654        H  0.61096375  0.45327641  0.45033430     0.12100
H655        H  0.54772074  0.41455081  0.99894371     0.14900
H656        H  0.56727218  0.38489474  0.05731024     0.13600
H657        H  0.65176823  0.46558166  0.02976323     0.11300
H658        H  0.64980368  0.46093376  0.44897469     0.13300
C659        C  0.49230103  0.79903779  0.36238310     0.19400
C660        C  0.51297975  0.78696181  0.35900256    -0.18700
C661        C  0.51364251  0.76327059  0.36509581    -0.11000
C662        C  0.49352257  0.75123951  0.37452258     0.21700
C663        C  0.47250804  0.76291777  0.37465704    -0.20300
C664        C  0.47185701  0.78661400  0.36868219    -0.11100
C665        C  0.49385904  0.72708356  0.38681930    -0.15300
C666        C  0.51173701  0.71822826  0.40448314    -0.29200
C667        C  0.49316849  0.82456544  0.36158916    -0.03400
C668        C  0.47809268  0.83781620  0.37890620    -0.40000
H669        H  0.52889873  0.79607123  0.35347012     0.12800
H670        H  0.53000829  0.75462156  0.36344038     0.12400
H671        H  0.45668777  0.75392151  0.38122878     0.11900
H672        H  0.45542070  0.79513976  0.37000384     0.12100
H673        H  0.47790880  0.71739895  0.38457076     0.14900
H674        H  0.52774235  0.72790567  0.40617385     0.13600
H675        H  0.50803957  0.83241224  0.34923196     0.11300
H676        H  0.46315021  0.82996382  0.39098916     0.13300
C677        C  0.59001400  0.63867143  0.46174110     0.19400
C678        C  0.60543281  0.63172808  0.43596088    -0.18700
C679        C  0.62374551  0.61724923  0.44383648    -0.11000
C680        C  0.62705030  0.60915420  0.47782208     0.21700
C681        C  0.61235218  0.61704976  0.50402002    -0.20300
C682        C  0.59398689  0.63163511  0.49613034    -0.11100
C683        C  0.64530476  0.59212679  0.48627887    -0.15300
C684        C  0.65248289  0.57670848  0.46275237    -0.29200
C685        C  0.57011775  0.65312039  0.45143161    -0.03400
C686        C  0.55047093  0.65415707  0.46973437    -0.40000
H687        H  0.60309252  0.63721956  0.40943235     0.12800
H688        H  0.63526236  0.61245844  0.42310511     0.12400
H689        H  0.61474870  0.61148762  0.53049287     0.11900
H690        H  0.58304790  0.63730817  0.51703966     0.12100
H691        H  0.65171158  0.59117712  0.51262295     0.14900
H692        H  0.64485132  0.57657079  0.43715357     0.13600
H693        H  0.57097902  0.66153911  0.42637641     0.11300
H694        H  0.54874577  0.64405053  0.49323270     0.13300
C695        C  0.39658473  0.60853949  0.50975698     0.19400
C696        C  0.40131040  0.61894435  0.47781925    -0.18700
C697        C  0.42176013  0.63107046  0.47256565    -0.11000
C698        C  0.43799793  0.63317379  0.49936204     0.21700
C699        C  0.43319947  0.62293665  0.53152567    -0.20300
C700        C  0.41260241  0.61077220  0.53681098    -0.11100
C701        C  0.46077214  0.64420539  0.49356287    -0.15300
C702        C  0.46463790  0.65956385  0.46807309    -0.29200
C703        C  0.37599646  0.59354766  0.51211843    -0.03400
C704        C  0.36551103  0.58734297  0.54169653    -0.40000
H705        H  0.38938266  0.61713394  0.45645516     0.12800
H706        H  0.42507001  0.63784085  0.44696832     0.12400
H707        H  0.44560929  0.62397261  0.55235476     0.11900
H708        H  0.40977011  0.60240135  0.56147741     0.12100
H709        H  0.47458110  0.63936080  0.51082898     0.14900
H710        H  0.45020067  0.66595961  0.45327207     0.13600
H711        H  0.36908000  0.58717972  0.48774809     0.11300
H712        H  0.37096760  0.59426347  0.56647339     0.13300
C713        C  0.07623670  0.13261953  0.19694099     0.19400
C714        C  0.07687993  0.11739579  0.22520111    -0.18700
C715        C  0.09676519  0.10492253  0.23264697    -0.11000
C716        C  0.11635899  0.10716895  0.21158365     0.21700
C717        C  0.11595174  0.12268914  0.18378381    -0.20300
C718        C  0.09622349  0.13547160  0.17667940    -0.11100
C719        C  0.13611157  0.09137649  0.21519974    -0.15300
C720        C  0.14395117  0.08366005  0.24581235    -0.29200
C721        C  0.05391076  0.14342420  0.18760178    -0.03400
C722        C  0.05196757  0.16201553  0.16693901    -0.40000
H723        H  0.06171131  0.11466320  0.24103657     0.12800
H724        H  0.09637819  0.09264429  0.25373155     0.12400
H725        H  0.13076146  0.12444532  0.16691681     0.11900
H726        H  0.09642953  0.14660241  0.15424952     0.12100
H727        H  0.14424503  0.08551729  0.19147881     0.14900
H728        H  0.13723746  0.09053716  0.26987030     0.13600
H729        H  0.03841148  0.13572924  0.19845146     0.11300
H730        H  0.06732353  0.17120835  0.15859016     0.13300
C731        C  0.93872739  0.12410688  0.15290515     0.19400
C732        C  0.92588112  0.11879828  0.18262279    -0.18700
C733        C  0.90478465  0.10712092  0.18002147    -0.11000
C734        C  0.89628496  0.10021465  0.14750235     0.21700
C735        C  0.90930290  0.10541082  0.11780544    -0.20300
C736        C  0.93021655  0.11736936  0.12039554    -0.11100
C737        C  0.87495368  0.08612629  0.14343100    -0.15300
C738        C  0.85831990  0.08388391  0.16757810    -0.29200
C739        C  0.96113263  0.13627483  0.15658733    -0.03400
C740        C  0.96813530  0.15245010  0.13398609    -0.40000
H741        H  0.93219548  0.12374537  0.20794221     0.12800
H742        H  0.89564522  0.10298579  0.20362006     0.12400
H743        H  0.90335450  0.10002001  0.09249399     0.11900
H744        H  0.93997079  0.12083498  0.09705133     0.12100
H745        H  0.87303964  0.07679238  0.11920447     0.14900
H746        H  0.85915909  0.09335219  0.19170477     0.13600
H747        H  0.97108569  0.13338481  0.17995298     0.11300
H748        H  0.95691241  0.15713980  0.11269236     0.13300
C749        C  0.07524373  0.92144492  0.27678319     0.19400
C750        C  0.09508612  0.91629824  0.25762821    -0.18700
C751        C  0.11374336  0.93186040  0.25676896    -0.11000
C752        C  0.11285889  0.95262829  0.27560956     0.21700
C753        C  0.09366375  0.95677735  0.29660153    -0.20300
C754        C  0.07508658  0.94146687  0.29715678    -0.11100
C755        C  0.13107525  0.97076616  0.27428235    -0.15300
C756        C  0.14689855  0.97315910  0.24903432    -0.29200
C757        C  0.05448967  0.90635241  0.27488323    -0.03400
C758        C  0.03328857  0.91552789  0.27466879    -0.40000
H759        H  0.09580459  0.90067368  0.24236480     0.12800
H760        H  0.12859202  0.92765834  0.24124729     0.12400
H761        H  0.09270429  0.97234390  0.31199677     0.11900
H762        H  0.06044006  0.94546837  0.31329103     0.12100
H763        H  0.13041278  0.98391717  0.29429555     0.14900
H764        H  0.14798951  0.96079407  0.22807868     0.13600
H765        H  0.05666825  0.88790970  0.27185792     0.11300
H766        H  0.03174974  0.93416410  0.27400023     0.13300
C767        C  0.88531280  0.96403114  0.19756199     0.19400
C768        C  0.88655514  0.95158894  0.22849208    -0.18700
C769        C  0.90672781  0.94045393  0.23773535    -0.11000
C770        C  0.92617976  0.94147784  0.21603280     0.21700
C771        C  0.92493523  0.95399511  0.18503153    -0.20300
C772        C  0.90463393  0.96513926  0.17572321    -0.11100
C773        C  0.94822065  0.93065829  0.22604984    -0.15300
C774        C  0.94900730  0.91253597  0.24766677    -0.29200
C775        C  0.86468955  0.97796530  0.19135236    -0.03400
C776        C  0.85731600  0.98445043  0.15995978    -0.40000
H777        H  0.87200064  0.95095676  0.24604319     0.12800
H778        H  0.90717227  0.93183678  0.26250971     0.12400
H779        H  0.93979376  0.95537564  0.16818675     0.11900
H780        H  0.90440650  0.97530361  0.15228098     0.12100
H781        H  0.96391983  0.93742066  0.21457168     0.14900
H782        H  0.93298557  0.90463982  0.25619783     0.13600
H783        H  0.85528743  0.98356179  0.21417223     0.11300
H784        H  0.86522504  0.97799510  0.13647325     0.13300
C785        C  0.99232347  0.81202754  0.34129618     0.19400
C786        C  0.01093232  0.79836363  0.35113473    -0.18700
C787        C  0.00801218  0.77461162  0.35548043    -0.11000
C788        C  0.98635173  0.76414577  0.34990423     0.21700
C789        C  0.96728805  0.77822813  0.34443359    -0.20300
C790        C  0.97018370  0.80196256  0.34028714    -0.11100
C791        C  0.98323346  0.73877253  0.34707403    -0.15300
C792        C  0.00033546  0.72495369  0.33675916    -0.29200
C793        C  0.99680676  0.83604088  0.32952000    -0.03400
C794        C  0.98350247  0.84600576  0.30542959    -0.40000
H795        H  0.02802534  0.80581646  0.35330108     0.12800
H796        H  0.02292325  0.76448727  0.36194395     0.12400
H797        H  0.95029353  0.77071464  0.34126621     0.11900
H798        H  0.95512871  0.81217401  0.33499341     0.12100
H799        H  0.96611110  0.73160564  0.35093550     0.14900
H800        H  0.01738593  0.73215498  0.33256129     0.13600
H801        H  0.01218585  0.84478583  0.33871973     0.11300
H802        H  0.96844999  0.83679427  0.29606318     0.13300
C803        C  0.11075610  0.60021033  0.31186215     0.19400
C804        C  0.10130717  0.60885198  0.34257208    -0.18700
C805        C  0.07995532  0.61968398  0.34243355    -0.11000
C806        C  0.06745975  0.62186149  0.31146360     0.21700
C807        C  0.07681490  0.61299340  0.28078222    -0.20300
C808        C  0.09832947  0.60240579  0.28086174    -0.11100
C809        C  0.04453354  0.63290416  0.31030422    -0.15300
C810        C  0.03827080  0.64958619  0.33243567    -0.29200
C811        C  0.13251982  0.58719584  0.31370848    -0.03400
C812        C  0.14765646  0.58578509  0.28748087    -0.40000
H813        H  0.11041215  0.60701179  0.36685379     0.12800
H814        H  0.07305968  0.62573960  0.36675859     0.12400
H815        H  0.06742752  0.61426540  0.25666158     0.11900
H816        H  0.10482609  0.59531011  0.25690340     0.12100
H817        H  0.03328168  0.62860582  0.28877212     0.14900
H818        H  0.05038027  0.65566839  0.35183003     0.13600
H819        H  0.13623972  0.57843369  0.33789892     0.11300
H820        H  0.14502786  0.59542215  0.26377002     0.13300
C821        C  0.88026955  0.61604348  0.26361008     0.19400
C822        C  0.88800753  0.62018144  0.29747490    -0.18700
C823        C  0.90592579  0.63570774  0.30393718    -0.11000
C824        C  0.91664526  0.64760401  0.27666189     0.21700
C825        C  0.90801884  0.64479414  0.24296658    -0.20300
C826        C  0.89008558  0.62897644  0.23635750    -0.11100
C827        C  0.93765104  0.66172961  0.28333466    -0.15300
C828        C  0.95454101  0.65333867  0.30345363    -0.29200
C829        C  0.86344809  0.59680165  0.25844863    -0.03400
C830        C  0.85352502  0.59055093  0.22829187    -0.40000
H831        H  0.88058792  0.61082406  0.31910240     0.12800
H832        H  0.91180528  0.63804122  0.33030203     0.12400
H833        H  0.91591445  0.65396574  0.22155457     0.11900
H834        H  0.88465478  0.62641404  0.20988962     0.12100
H835        H  0.93983421  0.67817089  0.27027952     0.14900
H836        H  0.95279966  0.63581182  0.31309743     0.13600
H837        H  0.85957051  0.58642659  0.28120489     0.11300
H838        H  0.85577614  0.60073129  0.20500441     0.13300
C839        C  0.01760892  0.27037895  0.12692856     0.19400
C840        C  0.03704477  0.28447377  0.13168965    -0.18700
C841        C  0.03467897  0.30805667  0.13740710    -0.11000
C842        C  0.01273411  0.31802254  0.13893710     0.21700
C843        C  0.99346565  0.30440932  0.13085505    -0.20300
C844        C  0.99584003  0.28079853  0.12480530    -0.11100
C845        C  0.00953947  0.34226208  0.15008944    -0.15300
C846        C  0.02388016  0.35218908  0.17306194    -0.29200
C847        C  0.02084017  0.24498816  0.12618263    -0.03400
C848        C  0.00376767  0.22985045  0.13296243    -0.40000
H849        H  0.05406309  0.27709073  0.13247004     0.12800
H850        H  0.05008487  0.31831267  0.14148998     0.12400
H851        H  0.97645084  0.31181899  0.13081047     0.11900
H852        H  0.98048540  0.27088062  0.11919193     0.12100
H853        H  0.99494810  0.35168784  0.14015029     0.14900
H854        H  0.03808818  0.34234402  0.18326918     0.13600
H855        H  0.03816885  0.23872314  0.12232308     0.11300
H856        H  0.98642053  0.23593192  0.13666022     0.13300
C857        C  0.14355504  0.45529874  0.24386144     0.19400
C858        C  0.13289189  0.45663754  0.21135804    -0.18700
C859        C  0.11445883  0.44217274  0.20318262    -0.11000
C860        C  0.10669247  0.42572159  0.22712901     0.21700
C861        C  0.11849358  0.42298700  0.25845076    -0.20300
C862        C  0.13667838  0.43788052  0.26704861    -0.11100
C863        C  0.08555884  0.41223543  0.22041721    -0.15300
C864        C  0.06642089  0.42266988  0.20913268    -0.29200
C865        C  0.16063635  0.47340360  0.25260286    -0.03400
C866        C  0.16640019  0.47996551  0.28491384    -0.40000
H867        H  0.13815165  0.46962767  0.19277957     0.12800
H868        H  0.10595058  0.44413861  0.17844883     0.12400
H869        H  0.11290295  0.41007321  0.27693778     0.11900
H870        H  0.14496312  0.43593857  0.29190340     0.12100
H871        H  0.08520357  0.39416902  0.22761511     0.14900
H872        H  0.06665059  0.44126343  0.20571725     0.13600
H873        H  0.16702271  0.48366541  0.23102147     0.11300
H874        H  0.16089242  0.47036162  0.30754092     0.13300
C875        C  0.90224161  0.46506601  0.20930445     0.19400
C876        C  0.92289986  0.47224331  0.19382169    -0.18700
C877        C  0.94151986  0.45740409  0.19143988    -0.11000
C878        C  0.94007639  0.43488765  0.20479562     0.21700
C879        C  0.91927449  0.42748864  0.21984084    -0.20300
C880        C  0.90052020  0.44244018  0.22224894    -0.11100
C881        C  0.95983858  0.41879416  0.20240917    -0.15300
C882        C  0.98174098  0.42655176  0.20120524    -0.29200
C883        C  0.88284685  0.48153920  0.20952860    -0.03400
C884        C  0.86421643  0.47999140  0.23010401    -0.40000
H885        H  0.92460941  0.48943588  0.18316922     0.12800
H886        H  0.95681170  0.46357340  0.17830755     0.12400
H887        H  0.91756007  0.41012215  0.22982762     0.11900
H888        H  0.88468178  0.43604488  0.23354394     0.12100
H889        H  0.95623653  0.40043940  0.20300923     0.14900
H890        H  0.98489880  0.44491305  0.20392265     0.13600
H891        H  0.88439630  0.49628505  0.19231870     0.11300
H892        H  0.86235548  0.46615097  0.24875731     0.13300
C893        C  0.65138519  0.85586956  0.29811825     0.19400
C894        C  0.64483763  0.87906941  0.29891216    -0.18700
C895        C  0.65911285  0.89622267  0.28480654    -0.11000
C896        C  0.68014709  0.89038424  0.26913922     0.21700
C897        C  0.68606939  0.86705438  0.26690554    -0.20300
C898        C  0.67183910  0.84996724  0.28099183    -0.11100
C899        C  0.69776479  0.90785856  0.25898885    -0.15300
C900        C  0.69400497  0.93062992  0.25596341    -0.29200
C901        C  0.63669443  0.83834855  0.31569848    -0.03400
C902        C  0.64516037  0.81871844  0.32904669    -0.40000
H903        H  0.62905567  0.88403391  0.31170086     0.12800
H904        H  0.65402546  0.91396871  0.28771412     0.12400
H905        H  0.70212514  0.86204139  0.25497516     0.11900
H906        H  0.67705101  0.83221153  0.27858888     0.12100
H907        H  0.71534045  0.90177491  0.25702902     0.14900
H908        H  0.67674292  0.93747641  0.25698203     0.13600
H909        H  0.61857985  0.84223342  0.31858746     0.11300
H910        H  0.66334064  0.81506386  0.32625842     0.13300
C911        C  0.68943359  0.66604709  0.35650288     0.19400
C912        C  0.66665804  0.66873201  0.34524830    -0.18700
C913        C  0.65534175  0.68977066  0.34975925    -0.11000
C914        C  0.66682908  0.70857810  0.36527523     0.21700
C915        C  0.68955109  0.70578878  0.37645665    -0.20300
C916        C  0.70074767  0.68487617  0.37211625    -0.11100
C917        C  0.65690382  0.73200483  0.36739908    -0.15300
C918        C  0.63434186  0.73684758  0.36581047    -0.29200
C919        C  0.70159119  0.64396632  0.35048647    -0.03400
C920        C  0.71802656  0.63665457  0.37214465    -0.40000
H921        H  0.65767880  0.65457293  0.33276992     0.12800
H922        H  0.63800767  0.69143602  0.34002058     0.12400
H923        H  0.69891662  0.72006779  0.38799598     0.11900
H924        H  0.71854454  0.68379278  0.38003172     0.12100
H925        H  0.66903865  0.74615391  0.37094601     0.14900
H926        H  0.62161852  0.72304734  0.36566849     0.13600
H927        H  0.69693896  0.63359921  0.32808617     0.11300
H928        H  0.72169027  0.64632873  0.39560409     0.13300
C929        C  0.84724844  0.85428418  0.30577583     0.19400
C930        C  0.85500303  0.87713790  0.30254527    -0.18700
C931        C  0.83950827  0.89540340  0.30387568    -0.11000
C932        C  0.81586251  0.89110555  0.30891124     0.21700
C933        C  0.80836918  0.86829562  0.31404609    -0.20300
C934        C  0.82383293  0.85009148  0.31266584    -0.11100
C935        C  0.79808643  0.90930051  0.30680881    -0.15300
C936        C  0.80226023  0.93195685  0.30212587    -0.29200
C937        C  0.86394554  0.83532261  0.30123799    -0.03400
C938        C  0.85773598  0.81420228  0.28995877    -0.40000
H939        H  0.87302922  0.88083214  0.29774399     0.12800
H940        H  0.84618951  0.91262006  0.29994536     0.12400
H941        H  0.79033196  0.86445233  0.31844324     0.11900
H942        H  0.81729651  0.83281618  0.31686304     0.12100
H943        H  0.78028264  0.90342475  0.30744349     0.14900
H944        H  0.81959222  0.93890839  0.30141768     0.13600
H945        H  0.88193135  0.83930871  0.30603027     0.11300
H946        H  0.83973028  0.81037814  0.28503650     0.13300
C947        C  0.86866358  0.69097748  0.30492902     0.19400
C948        C  0.86801388  0.68080849  0.33783385    -0.18700
C949        C  0.85397376  0.66151306  0.34407648    -0.11000
C950        C  0.84075471  0.65186079  0.31710891     0.21700
C951        C  0.84272239  0.66125281  0.28374824    -0.20300
C952        C  0.85646395  0.68061323  0.27769439    -0.11100
C953        C  0.82327607  0.63342911  0.32245792    -0.15300
C954        C  0.81910117  0.62216857  0.35230596    -0.29200
C955        C  0.88074055  0.71325726  0.29986681    -0.03400
C956        C  0.87074447  0.73035517  0.28208333    -0.40000
H957        H  0.87744867  0.68851350  0.35911834     0.12800
H958        H  0.85301280  0.65487041  0.37013745     0.12400
H959        H  0.83298742  0.65401541  0.26238279     0.11900
H960        H  0.85713543  0.68782865  0.25186883     0.12100
H961        H  0.81224770  0.62965094  0.30040708     0.14900
H962        H  0.82994675  0.62442012  0.37486864     0.13600
H963        H  0.89660730  0.71655275  0.31394963     0.11300
H964        H  0.85359760  0.72769549  0.27154680     0.13300
C965        C  0.54173121  0.79123400  0.43647543     0.19400
C966        C  0.52740224  0.77409052  0.45058072    -0.18700
C967        C  0.50473207  0.77903059  0.45972336    -0.11000
C968        C  0.50107043  0.80315464  0.95718553     0.21700
C969        C  0.51634143  0.82101879  0.94822954    -0.20300
C970        C  0.53939050  0.81637586  0.94096287    -0.11100
C971        C  0.47601833  0.80809373  0.95870953    -0.15300
C972        C  0.45482823  0.79118011  0.45166911    -0.29200
C973        C  0.56463221  0.78462500  0.42290751    -0.03400
C974        C  0.57529364  0.79636782  0.39740006    -0.40000
H975        H  0.53345444  0.75658835  0.45316158     0.12800
H976        H  0.49393604  0.76522018  0.46946657     0.12400
H977        H  0.51016965  0.83843981  0.94505655     0.11900
H978        H  0.55045189  0.83050393  0.93306032     0.12100
H979        H  0.47096761  0.82580137  0.96297744     0.14900
H980        H  0.45961470  0.77351064  0.44640238     0.13600
H981        H  0.57220773  0.76902151  0.43304143     0.11300
H982        H  0.57298480  0.81418009  0.89356727     0.13300
C983        C  0.33233294  0.91317621  0.40535615     0.19400
C984        C  0.35106793  0.90573082  0.38554064    -0.18700
C985        C  0.36467051  0.88743821  0.39704427    -0.11000
C986        C  0.35985289  0.87655444  0.42886498     0.21700
C987        C  0.34208460  0.88510560  0.44957308    -0.20300
C988        C  0.32861255  0.90330332  0.43815675    -0.11100
C989        C  0.37088510  0.85478250  0.43973640    -0.15300
C990        C  0.39095031  0.84694210  0.42734920    -0.29200
C991        C  0.31618250  0.93051773  0.39123714    -0.03400
C992        C  0.29356565  0.92885202  0.39804097    -0.40000
H993        H  0.35446786  0.91330453  0.36042893     0.12800
H994        H  0.37812292  0.88121968  0.38020681     0.12400
H995        H  0.33817001  0.87723093  0.47432664     0.11900
H996        H  0.31493948  0.90931346  0.45480737     0.12100
H997        H  0.36349289  0.84189863  0.95514360     0.14900
H998        H  0.40172430  0.85775214  0.41102683     0.13600
H999        H  0.32276097  0.94435394  0.37499076     0.11300
H1000       H  0.28715329  0.91444267  0.41325966     0.13300
C1001       C  0.97813087  0.77572330  0.25452184     0.19400
C1002       C  0.99322652  0.75742849  0.25987240    -0.18700
C1003       C  0.01651339  0.76164846  0.26606235    -0.11000
C1004       C  0.02511034  0.78438667  0.26754362     0.21700
C1005       C  0.01057041  0.80245469  0.25812317    -0.20300
C1006       C  0.98724136  0.79819014  0.25158134    -0.11100
C1007       C  0.04842793  0.78987365  0.28124840    -0.15300
C1008       C  0.05912470  0.77579248  0.30358093    -0.29200
C1009       C  0.95304640  0.77069098  0.25436393    -0.03400
C1010       C  0.93733671  0.78607689  0.26495626    -0.40000
H1011       H  0.98680105  0.73987662  0.26110547     0.12800
H1012       H  0.02745188  0.74704996  0.27077714     0.12400
H1013       H  0.01693888  0.82003870  0.25778038     0.11900
H1014       H  0.97635126  0.81256297  0.24529616     0.12100
H1015       H  0.05612725  0.80644170  0.27485762     0.14900
H1016       H  0.05126917  0.75941446  0.31041495     0.13600
H1017       H  0.94785464  0.75316505  0.24849780     0.11300
H1018       H  0.94292624  0.80347640  0.27105224     0.13300
C1019       C  0.14054631  0.86038978  0.38759297     0.19400
C1020       C  0.15349984  0.86445758  0.41773045    -0.18700
C1021       C  0.16492314  0.88550888  0.42281796    -0.11000
C1022       C  0.16398540  0.90280741  0.39757404     0.21700
C1023       C  0.14991251  0.89937845  0.36843082    -0.20300
C1024       C  0.13834104  0.87842244  0.36343648    -0.11100
C1025       C  0.17916172  0.92341461  0.40094558    -0.15300
C1026       C  0.18969237  0.93274034  0.37325058    -0.29200
C1027       C  0.13140442  0.83666166  0.38119687    -0.03400
C1028       C  0.11648604  0.83105783  0.35574094    -0.40000
H1029       H  0.15542816  0.85100986  0.43692018     0.12800
H1030       H  0.17548752  0.88782463  0.44565860     0.12400
H1031       H  0.14832041  0.91267670  0.34895990     0.11900
H1032       H  0.12863448  0.87629401  0.33981962     0.12100
H1033       H  0.18414999  0.92904552  0.42671302     0.14900
H1034       H  0.18646538  0.92569008  0.34766049     0.13600
H1035       H  0.13751204  0.82320296  0.39825385     0.11300
H1036       H  0.10875437  0.84450721  0.34034228     0.13300
C1037       C  0.36137755  0.72247118  0.42900843     0.19400
C1038       C  0.36597454  0.70281947  0.40898817    -0.18700
C1039       C  0.35036183  0.68427997  0.40799089    -0.11000
C1040       C  0.32984824  0.68502660  0.42728265     0.21700
C1041       C  0.32542803  0.70458878  0.44746847    -0.20300
C1042       C  0.34094551  0.72302760  0.44844748    -0.11100
C1043       C  0.31271880  0.66586807  0.42847088    -0.15300
C1044       C  0.31227697  0.64732360  0.40749976    -0.29200
C1045       C  0.37862972  0.74157454  0.43011376    -0.03400
C1046       C  0.37360800  0.76315698  0.44036528    -0.40000
H1047       H  0.38171971  0.70179334  0.39413370     0.12800
H1048       H  0.35468085  0.66939948  0.39256080     0.12400
H1049       H  0.30991638  0.70556117  0.46289929     0.11900
H1050       H  0.33698321  0.73735913  0.46522072     0.12100
H1051       H  0.29911372  0.66749904  0.44759741     0.14900
H1052       H  0.32491007  0.64509013  0.38720678     0.13600
H1053       H  0.40236477  0.73533911  0.93249304     0.11300
H1054       H  0.35599205  0.76761001  0.44636887     0.13300
C1055       C  0.18632436  0.68224167  0.39262940     0.19400
C1056       C  0.18068972  0.69050023  0.35965568    -0.18700
C1057       C  0.16700413  0.70985358  0.35578080    -0.11000
C1058       C  0.15848486  0.72148960  0.38489929     0.21700
C1059       C  0.16413052  0.71336729  0.41804070    -0.20300
C1060       C  0.17784642  0.69377654  0.42195381    -0.11100
C1061       C  0.14432079  0.74246167  0.38083868    -0.15300
C1062       C  0.13000923  0.74488129  0.35379147    -0.29200
C1063       C  0.20271661  0.66289641  0.39454960    -0.03400
C1064       C  0.20587118  0.64901357  0.42200660    -0.40000
H1065       H  0.18725339  0.68214915  0.33667033     0.12800
H1066       H  0.16367190  0.71602603  0.32984623     0.12400
H1067       H  0.15795839  0.72221068  0.44084787     0.11900
H1068       H  0.18231636  0.68820262  0.44778345     0.12100
H1069       H  0.14505050  0.75558345  0.40083708     0.14900
H1070       H  0.12768123  0.73054788  0.33602753     0.13600
H1071       H  0.21281109  0.65980968  0.37133330     0.11300
H1072       H  0.19555191  0.65069548  0.44524450     0.13300
In1073     In  0.26638205  0.59782618  0.91452288     1.36900
C1074       C  0.28074837  0.57026044  0.96386415     0.78300
O1075       O  0.24412023  0.56812446  0.89758293    -0.60200
O1076       O  0.26222146  0.58712372  0.85898002    -0.51100
C1077       C  0.23260658  0.62800608  0.91615952     0.71000
O1078       O  0.23521791  0.61341231  0.94003964    -0.45900
C1079       C  0.30243026  0.62648305  0.91501330     0.75700
O1080       O  0.26542069  0.58512393  0.96899729    -0.57800
O1081       O  0.30036906  0.61083963  0.89240751    -0.47900
O1082       O  0.28797572  0.56880923  0.93310991    -0.54200
C1083       C  0.24779794  0.57137398  0.86581445     0.85800
O1084       O  0.24687565  0.62659410  0.89172371    -0.56100
O1085       O  0.28652451  0.62681713  0.93709343    -0.59400
C1086       C  0.08500346  0.77040646  0.81369434     0.03800
C1087       C  0.09121844  0.79321784  0.82221014    -0.12300
C1088       C  0.11168084  0.79798094  0.84036959     0.01300
C1089       C  0.12600112  0.77958057  0.84987655    -0.10800
C1090       C  0.11990452  0.75680028  0.84140896     0.03800
C1091       C  0.09947463  0.75244795  0.82343007    -0.10300
H1092       H  0.08001836  0.80729935  0.81545303     0.09400
H1093       H  0.14240820  0.78295459  0.86209623     0.07000
H1094       H  0.09484649  0.73485075  0.81675014     0.06800
C1095       C  0.43012229  0.79672298  0.44742920     0.03800
C1096       C  0.42615795  0.81852414  0.93976218    -0.12300
C1097       C  0.40240340  0.82175680  0.93568508     0.01300
C1098       C  0.38739658  0.80271420  0.93914886    -0.10800
C1099       C  0.39582542  0.78062760  0.94597795     0.03800
C1100       C  0.41958543  0.77782012  0.95071515    -0.10300
H1101       H  0.43764884  0.83307091  0.93606320     0.09400
H1102       H  0.36912211  0.80480881  0.93493774     0.07000
H1103       H  0.42019873  0.76107314  0.45224503     0.06800
In1104     In  0.24401221  0.97262465  0.87431540     1.36900
C1105       C  0.26013356  0.00049113  0.92271932     0.78300
O1106       O  0.25856247  0.94235856  0.90046990    -0.60200
O1107       O  0.27923219  0.95788163  0.86116137    -0.51100
C1108       C  0.20985538  0.94260133  0.86852525     0.71000
O1109       O  0.21092346  0.95649806  0.89386634    -0.45900
C1110       C  0.22743305  0.99857675  0.82400601     0.75700
O1111       O  0.24303727  0.98731986  0.92825560    -0.57800
O1112       O  0.24345920  0.98435555  0.81876463    -0.47900
O1113       O  0.26750127  0.00066404  0.89198812    -0.54200
C1114       C  0.27726415  0.94235334  0.88410366     0.85800
O1115       O  0.22590360  0.94451367  0.84671787    -0.56100
O1116       O  0.22153532  0.00090504  0.85525487    -0.59400
C1117       C  0.91501011  0.77634019  0.75859821     0.03800
C1118       C  0.90102750  0.79583670  0.75588214    -0.12300
C1119       C  0.87694105  0.79378981  0.75715944     0.01300
C1120       C  0.86698786  0.77173618  0.76043068    -0.10800
C1121       C  0.88067563  0.75211418  0.76454522     0.03800
C1122       C  0.90472494  0.75456984  0.76378587    -0.10300
H1123       H  0.90910470  0.81247982  0.75187514     0.09400
H1124       H  0.84841724  0.76987730  0.76075824     0.07000
H1125       H  0.91529517  0.73950930  0.76690807     0.06800
In1126     In  0.76008545  0.58061126  0.85756353     1.36900
C1127       C  0.74095608  0.55393504  0.90489093     0.78300
O1128       O  0.74677916  0.61025062  0.88694718    -0.60200
O1129       O  0.73005249  0.60212062  0.83934325    -0.51100
C1130       C  0.79785442  0.60592168  0.84902534     0.71000
O1131       O  0.79500032  0.59332486  0.87550395    -0.45900
C1132       C  0.77311614  0.55220604  0.80876067     0.75700
O1133       O  0.75849106  0.56625145  0.91142977    -0.57800
O1134       O  0.75661374  0.56599035  0.80427609    -0.47900
O1135       O  0.73430856  0.55417697  0.87380794    -0.54200
C1136       C  0.73142496  0.61533714  0.86540373     0.85800
O1137       O  0.78145050  0.60543005  0.82769295    -0.56100
O1138       O  0.78106984  0.55130775  0.83914888    -0.59400
C1139       C  0.60311912  0.79227501  0.88683477     0.03800
C1140       C  0.61144595  0.76955171  0.88654589    -0.12300
C1141       C  0.63173173  0.76413482  0.86849760     0.01300
C1142       C  0.64324949  0.78160135  0.84978366    -0.10800
C1143       C  0.63468605  0.80406895  0.84876161     0.03800
C1144       C  0.61494489  0.80931574  0.86804059    -0.10300
H1145       H  0.60209916  0.75594223  0.89972797     0.09400
H1146       H  0.65833629  0.77758452  0.83455572     0.07000
H1147       H  0.60862328  0.82678749  0.86862247     0.06800
In1148     In  0.74885029  0.97548957  0.78002442     1.36900
C1149       C  0.76626868  0.00352722  0.73218042     0.78300
O1150       O  0.72602622  0.00416458  0.79765866    -0.60200
O1151       O  0.74706633  0.98728756  0.83492186    -0.51100
C1152       C  0.71206291  0.94807409  0.77853351     0.71000
O1153       O  0.71979553  0.95734763  0.75125189    -0.45900
C1154       C  0.78298123  0.94516857  0.78492741     0.75700
O1155       O  0.75069946  0.98894545  0.72532569    -0.57800
O1156       O  0.78094925  0.96165014  0.80591607    -0.47900
O1157       O  0.77176472  0.00474955  0.76364910    -0.54200
C1158       C  0.73144581  0.00174480  0.82911804     0.85800
O1159       O  0.72296521  0.95294669  0.80563341    -0.56100
O1160       O  0.76764460  0.94433980  0.76202051    -0.59400
C1161       C  0.02326334  0.37765777  0.67836336     0.03800
C1162       C  0.04387466  0.38911531  0.68627250    -0.12300
C1163       C  0.04427757  0.41286940  0.69215641     0.01300
C1164       C  0.02374283  0.42519300  0.69047424    -0.10800
C1165       C  0.00265535  0.41395099  0.68443607     0.03800
C1166       C  0.00246863  0.39001578  0.67797858    -0.10300
H1167       H  0.05981306  0.37959489  0.68618934     0.09400
H1168       H  0.02412335  0.44364527  0.69475302     0.07000
H1169       H  0.98643823  0.38115786  0.67237871     0.06800
In1170     In  0.81259099  0.52807006  0.72988420     1.36900
C1171       C  0.78746380  0.51002465  0.67943186     0.78300
O1172       O  0.84537081  0.51366358  0.70948136    -0.60200
O1173       O  0.82874759  0.49548877  0.75019069    -0.51100
C1174       C  0.83698577  0.56696420  0.73375488     0.71000
O1175       O  0.82423064  0.56257098  0.70802548    -0.45900
C1176       C  0.78466359  0.54072089  0.78005573     0.75700
O1177       O  0.80116407  0.52668810  0.67432999    -0.57800
O1178       O  0.80063266  0.52647856  0.78484012    -0.47900
O1179       O  0.78565362  0.50362922  0.71049546    -0.54200
C1180       C  0.84558724  0.49659815  0.72958192     0.85800
O1181       O  0.83694675  0.55161203  0.75678634    -0.56100
O1182       O  0.78154101  0.54666539  0.74901792    -0.59400
C1183       C  0.00059611  0.69267054  0.83190755     0.03800
C1184       C  0.97968904  0.68203312  0.82215574    -0.12300
C1185       C  0.97852989  0.65803934  0.81725980     0.01300
C1186       C  0.99843983  0.64488830  0.82175726    -0.10800
C1187       C  0.01934204  0.65543525  0.83095960     0.03800
C1188       C  0.02023811  0.67921361  0.83622110    -0.10300
H1189       H  0.96441957  0.69222346  0.81849438     0.09400
H1190       H  0.99762076  0.62636084  0.81839479     0.07000
H1191       H  0.03642451  0.68733043  0.84329270     0.06800
In1192     In  0.20761409  0.54071702  0.79148481     1.36900
C1193       C  0.23482773  0.55913850  0.83892872     0.78300
O1194       O  0.23658745  0.51998119  0.77108200    -0.60200
O1195       O  0.22014894  0.54371761  0.73700491    -0.51100
C1196       C  0.18340718  0.50223208  0.78398759     0.71000
O1197       O  0.19587103  0.50554285  0.81044651    -0.45900
C1198       C  0.17272646  0.56965709  0.79498889     0.75700
O1199       O  0.22210690  0.54185620  0.84527254    -0.57800
O1200       O  0.18799437  0.57121253  0.77177775    -0.47900
O1201       O  0.23438005  0.56617846  0.80806035    -0.54200
C1202       C  0.23402750  0.52724263  0.74054996     0.85800
O1203       O  0.18323972  0.51866579  0.76272435    -0.56100
O1204       O  0.17592660  0.55397318  0.81698686    -0.59400
C1205       C  0.98514309  0.86292236  0.78662235     0.03800
C1206       C  0.96521121  0.87356905  0.77456655    -0.12300
C1207       C  0.96569538  0.89631554  0.76293655     0.01300
C1208       C  0.98659164  0.90862608  0.76356991    -0.10800
C1209       C  0.00694233  0.89815936  0.77482735     0.03800
C1210       C  0.00618105  0.87515354  0.78630525    -0.10300
H1211       H  0.94901715  0.86409720  0.77464573     0.09400
H1212       H  0.98707915  0.92657090  0.75598043     0.07000
H1213       H  0.02169344  0.86697928  0.79533223     0.06800
C1214       C  0.00884740  0.20552808  0.63485103     0.03800
C1215       C  0.98901951  0.19186848  0.63099873    -0.12300
C1216       C  0.98877422  0.16865737  0.64068523     0.01300
C1217       C  0.00899215  0.15871047  0.65362170    -0.10800
C1218       C  0.02928051  0.17206036  0.65725701     0.03800
C1219       C  0.02895989  0.19546095  0.64794965    -0.10300
H1220       H  0.97339401  0.19952641  0.62114510     0.09400
H1221       H  0.00899068  0.14051357  0.65956604     0.07000
H1222       H  0.04430882  0.20578928  0.65191286     0.06800
In1223     In  0.18762377  0.02642990  0.74659682     1.36900
C1224       C  0.21581348  0.04512297  0.70085409     0.78300
O1225       O  0.16321986  0.04990867  0.71942040    -0.60200
O1226       O  0.16890571  0.05555846  0.77304902    -0.51100
C1227       C  0.15771907  0.99153032  0.74362730     0.71000
O1228       O  0.17390819  0.99354894  0.72197906    -0.45900
C1229       C  0.21487837  0.00993882  0.79588371     0.75700
O1230       O  0.20171825  0.02930849  0.69273360    -0.57800
O1231       O  0.20077992  0.02596238  0.80129190    -0.47900
O1232       O  0.21662675  0.05002006  0.73264711    -0.54200
C1233       C  0.15845075  0.06159847  0.74590295     0.85800
O1234       O  0.15706844  0.00723377  0.76602396    -0.56100
O1235       O  0.21589691  0.00316050  0.76491049    -0.59400
In1236     In  0.80702884  0.03543606  0.65981186     1.40100
C1237       C  0.77863044  0.05009375  0.61136732     0.78300
O1238       O  0.77950636  0.00993010  0.67442530    -0.60200
O1239       O  0.79118055  0.03385360  0.71258072    -0.51100
C1240       C  0.83708411  0.00149586  0.66209422     0.71000
O1241       O  0.82760166  0.00732719  0.63405688    -0.45900
C1242       C  0.83781237  0.06966850  0.66481320     0.75700
O1243       O  0.79245915  0.03382380  0.60617258    -0.57800
O1244       O  0.82229701  0.06645106  0.68723529    -0.47900
O1245       O  0.77896012  0.05844873  0.64150323    -0.54200
C1246       C  0.77872636  0.01652588  0.70552527     0.85800
O1247       O  0.83083257  0.01273687  0.68825173    -0.56100
O1248       O  0.83658414  0.05634932  0.63913952    -0.59400
C1249       C  0.50985355  0.69765646  0.93537624     0.03800
C1250       C  0.52930952  0.68521396  0.94571057    -0.12300
C1251       C  0.52686513  0.66468714  0.96495006     0.01300
C1252       C  0.50478014  0.65723208  0.97471744    -0.10800
C1253       C  0.48524053  0.66985201  0.96546803     0.03800
C1254       C  0.48795148  0.68991835  0.94582030    -0.10300
H1255       H  0.54621027  0.69165444  0.93878608     0.09400
H1256       H  0.50292805  0.64116672  0.98868402     0.07000
H1257       H  0.47279997  0.69974514  0.93957631     0.06800
In1258     In  0.69937523  0.52383576  0.97780720     1.36900
C1259       C  0.72624458  0.50806566  0.52545679     0.78300
O1260       O  0.67159618  0.50216506  0.49930778    -0.60200
O1261       O  0.68506115  0.49212971  0.95170998    -0.51100
C1262       C  0.66794933  0.55656366  0.97167587     0.71000
O1263       O  0.68106147  0.55578452  0.99781697    -0.45900
C1264       C  0.72788128  0.54172585  0.93163014     0.75700
O1265       O  0.71177267  0.52381565  0.53093884    -0.57800
O1266       O  0.71427686  0.52530765  0.92456971    -0.47900
O1267       O  0.72755353  0.50145062  0.49440494    -0.54200
C1268       C  0.67045828  0.48812046  0.47448492     0.85800
O1269       O  0.67095639  0.54081145  0.94993865    -0.56100
O1270       O  0.72796756  0.54804975  0.96289303    -0.59400
C1271       C  0.49889118  0.36015009  0.56096537     0.03800
C1272       C  0.52155399  0.36773545  0.55452790    -0.12300
C1273       C  0.52598513  0.39017918  0.54291364     0.01300
C1274       C  0.50756090  0.40534863  0.53824710    -0.10800
C1275       C  0.48482625  0.39812471  0.54433927     0.03800
C1276       C  0.48063218  0.37535868  0.55531990    -0.10300
H1277       H  0.53589091  0.35615557  0.55748017     0.09400
H1278       H  0.51092394  0.42305106  0.53076180     0.07000
H1279       H  0.46328212  0.36957523  0.56089725     0.06800
In1280     In  0.31344666  0.53895689  0.53688678     1.36900
C1281       C  0.28520640  0.52308768  0.58466506     0.78300
O1282       O  0.28832097  0.56232010  0.02336543    -0.60200
O1283       O  0.30389843  0.54015497  0.98629567    -0.51100
C1284       C  0.34435732  0.57178539  0.04694096     0.71000
O1285       O  0.33359970  0.56618055  0.56612999    -0.45900
C1286       C  0.33997298  0.50203346  0.53127176     0.75700
O1287       O  0.29987269  0.53869448  0.59084975    -0.57800
O1288       O  0.32541618  0.50475899  0.01328269    -0.47900
O1289       O  0.28394428  0.51667233  0.55353660    -0.54200
C1290       C  0.29076441  0.55689066  0.99193123     0.85800
O1291       O  0.34202877  0.55969306  0.02014189    -0.56100
O1292       O  0.33996545  0.51492421  0.55746131    -0.59400
C1293       C  0.51148660  0.18970603  0.54409278     0.03800
C1294       C  0.53179280  0.18032267  0.53074714    -0.12300
C1295       C  0.53188602  0.15873063  0.51483600     0.01300
C1296       C  0.51122303  0.14610099  0.51260265    -0.10800
C1297       C  0.49056663  0.15509404  0.52548167     0.03800
C1298       C  0.49074805  0.17700955  0.54128177    -0.10300
H1299       H  0.54781249  0.18992894  0.53281421     0.09400
H1300       H  0.51117819  0.12893273  0.50163685     0.07000
H1301       H  0.47494843  0.18383268  0.55159954     0.06800
C1302       C  0.48608632  0.86348692  0.88237606     0.03800
C1303       C  0.46685702  0.87668283  0.89146381    -0.12300
C1304       C  0.46893016  0.90061651  0.89655667     0.01300
C1305       C  0.49063718  0.91121102  0.89261103    -0.10800
C1306       C  0.51018888  0.89814514  0.88458030     0.03800
C1307       C  0.50771578  0.87438525  0.87941666    -0.10300
H1308       H  0.45022527  0.86828399  0.89358934     0.09400
H1309       H  0.49220084  0.92970380  0.89560217     0.07000
H1310       H  0.52296749  0.86446199  0.87417640     0.06800
In1311     In  0.69278482  0.02959885  0.90716707     1.36900
C1312       C  0.71899913  0.01308452  0.85716176     0.78300
O1313       O  0.72143179  0.05354207  0.92289405    -0.60200
O1314       O  0.70775530  0.02269728  0.46536531    -0.51100
C1315       C  0.66440477  0.06494906  0.90870979     0.71000
O1316       O  0.67666166  0.06089012  0.88244710    -0.45900
C1317       C  0.66192758  0.99543714  0.91190896     0.75700
O1318       O  0.70465668  0.02887345  0.85190807    -0.57800
O1319       O  0.67752852  0.99846504  0.93419952    -0.47900
O1320       O  0.72064205  0.00653243  0.88818624    -0.54200
C1321       C  0.71962257  0.04048741  0.45878845     0.85800
O1322       O  0.66669527  0.04161776  0.44039597    -0.56100
O1323       O  0.66267291  0.00932949  0.88689433    -0.59400
In1324     In  0.30142576  0.02950539  0.99668124     1.36900
C1325       C  0.27241185  0.01288402  0.95018140     0.78300
O1326       O  0.32625284  0.00859315  0.96676434    -0.60200
O1327       O  0.31779498  0.99666266  0.01718351    -0.51100
C1328       C  0.33378053  0.06664200  0.50161451     0.71000
O1329       O  0.31677500  0.06126104  0.97167779    -0.45900
C1330       C  0.27678488  0.05050995  0.55449572     0.75700
O1331       O  0.28625513  0.02921960  0.94365266    -0.57800
O1332       O  0.29197088  0.03559302  0.56056149    -0.47900
O1333       O  0.27192539  0.00640850  0.98138429    -0.54200
C1334       C  0.32916741  0.99345351  0.98961347     0.85800
O1335       O  0.33371388  0.05128805  0.52467068    -0.56100
O1336       O  0.27401863  0.05521984  0.52293533    -0.59400
In1337     In  0.25310403  0.48603804  0.66053918     1.36900
C1338       C  0.24341953  0.51479423  0.71105321     0.78300
O1339       O  0.27939828  0.51152885  0.64289860    -0.60200
O1340       O  0.25432430  0.49981332  0.60644660    -0.51100
C1341       C  0.28269605  0.45177268  0.65518896     0.71000
O1342       O  0.28252876  0.46491902  0.68126113    -0.45900
C1343       C  0.21456202  0.46098398  0.66387517     0.75700
O1344       O  0.25787416  0.49886601  0.71458930    -0.57800
O1345       O  0.21785776  0.47568646  0.64020278    -0.47900
O1346       O  0.23529600  0.51708144  0.68098792    -0.54200
C1347       C  0.27225424  0.51167290  0.61211038     0.85800
O1348       O  0.26816576  0.45659467  0.63221944    -0.56100
O1349       O  0.23051022  0.45992055  0.68583757    -0.59400
C1350       C  0.40756053  0.29099607  0.04811396     0.03800
C1351       C  0.39521611  0.31016513  0.05950761    -0.12300
C1352       C  0.37321220  0.30773819  0.07393606     0.01300
C1353       C  0.36355528  0.28558744  0.07753498    -0.10800
C1354       C  0.37570368  0.26610697  0.06646326     0.03800
C1355       C  0.39761856  0.26890366  0.05164350    -0.10300
H1356       H  0.40270064  0.32726268  0.05669548     0.09400
H1357       H  0.34615940  0.28352604  0.08719605     0.07000
H1358       H  0.40682602  0.25376317  0.04366686     0.06800
In1359     In  0.24543091  0.08875894  0.63051175     1.36900
C1360       C  0.22840441  0.05869739  0.67509637     0.78300
O1361       O  0.22416654  0.11466129  0.65854635    -0.60200
O1362       O  0.21353395  0.10536897  0.60787478    -0.51100
C1363       C  0.27915406  0.11977825  0.63156552     0.71000
O1364       O  0.27630301  0.10553114  0.65600062    -0.45900
C1365       C  0.26439420  0.06273598  0.58199276     0.75700
O1366       O  0.24402751  0.07296272  0.68330328    -0.57800
O1367       O  0.24708883  0.07520216  0.57608475    -0.47900
O1368       O  0.22282671  0.05863477  0.64354646    -0.54200
C1369       C  0.20979538  0.11743026  0.63455585     0.85800
O1370       O  0.26492616  0.11787210  0.60711583    -0.56100
O1371       O  0.27116240  0.06269625  0.61302210    -0.59400
C1372       C  0.08746411  0.28811952  0.71033048     0.03800
C1373       C  0.10075515  0.30842114  0.70934338    -0.12300
C1374       C  0.12477936  0.30765285  0.70646665     0.01300
C1375       C  0.13554421  0.28613961  0.70502827    -0.10800
C1376       C  0.12262440  0.26555322  0.70444443     0.03800
C1377       C  0.09849237  0.26664105  0.70709780    -0.10300
H1378       H  0.09226401  0.32486117  0.71174365     0.09400
H1379       H  0.15412698  0.28543239  0.70342173     0.07000
H1380       H  0.08852653  0.25084678  0.70677884     0.06800
C1381       C  0.91919822  0.26720780  0.64664634     0.03800
C1382       C  0.90955289  0.24670218  0.63376520    -0.12300
C1383       C  0.88756290  0.24617385  0.61911370     0.01300
C1384       C  0.87498758  0.26669846  0.61746046    -0.10800
C1385       C  0.88438074  0.28764628  0.62946037     0.03800
C1386       C  0.90661837  0.28781692  0.64407843    -0.10300
H1387       H  0.91918521  0.23083706  0.63561634     0.09400
H1388       H  0.85759686  0.26645441  0.60752763     0.07000
H1389       H  0.91390060  0.30376406  0.65370651     0.06800
In1390     In  0.74510010  0.08367641  0.53386714     1.36900
C1391       C  0.76460168  0.05990887  0.58382604     0.78300
O1392       O  0.72448271  0.05279529  0.51725766    -0.60200
O1393       O  0.74458946  0.07043114  0.47936793    -0.51100
C1394       C  0.70965589  0.11226828  0.53734049     0.71000
O1395       O  0.71130709  0.09520550  0.55739140    -0.45900
C1396       C  0.78035144  0.11293003  0.53074782     0.75700
O1397       O  0.74919632  0.07457093  0.58972790    -0.57800
O1398       O  0.77465821  0.10067732  0.50506039    -0.47900
O1399       O  0.76839064  0.05581598  0.55227829    -0.54200
C1400       C  0.73036189  0.05447731  0.48591479     0.85800
O1401       O  0.72555354  0.11399721  0.51539199    -0.56100
O1402       O  0.76807181  0.11004872  0.55725647    -0.59400
C1403       C  0.57861797  0.28127913  0.02781667     0.03800
C1404       C  0.58713194  0.30330478  0.03639573    -0.12300
C1405       C  0.61031848  0.30644239  0.04524278     0.01300
C1406       C  0.62513056  0.28744423  0.04470064    -0.10800
C1407       C  0.61684322  0.26538704  0.03642671     0.03800
C1408       C  0.59349322  0.26243340  0.02819085    -0.10300
H1409       H  0.57571156  0.31794674  0.03702471     0.09400
H1410       H  0.64326174  0.28984886  0.05005355     0.07000
H1411       H  0.58688396  0.24565022  0.02087780     0.06800
In1412     In  0.75852161  0.47083386  0.60203107     1.36900
C1413       C  0.77579993  0.49769167  0.65135050     0.78300
O1414       O  0.77725450  0.43957828  0.62005423    -0.60200
O1415       O  0.79148004  0.45730962  0.57723269    -0.51100
C1416       C  0.72233219  0.44303346  0.60813896     0.71000
O1417       O  0.72886291  0.45599040  0.63250877    -0.45900
C1418       C  0.73936719  0.49679829  0.55315449     0.75700
O1419       O  0.76043994  0.48272815  0.65705342    -0.57800
O1420       O  0.75524111  0.48270068  0.54688113    -0.47900
O1421       O  0.78142247  0.49997620  0.61999727    -0.54200
C1422       C  0.79323826  0.44071377  0.59816654     0.85800
O1423       O  0.73425750  0.44444787  0.58094239    -0.56100
O1424       O  0.73450287  0.49898967  0.58480221    -0.59400
C1425       C  0.67645201  0.39783914  0.58465662     0.19400
C1426       C  0.66258143  0.39382286  0.55558181    -0.18700
C1427       C  0.65235637  0.37014733  0.04878343    -0.11000
C1428       C  0.64915570  0.35750134  0.58004958     0.21700
C1429       C  0.66240960  0.36192754  0.60969455    -0.20300
C1430       C  0.67584478  0.38196676  0.61213814    -0.11100
C1431       C  0.63801217  0.33455438  0.57595432    -0.15300
C1432       C  0.61929686  0.32989882  0.05248051    -0.29200
C1433       C  0.69356420  0.41686730  0.58331753    -0.03400
C1434       C  0.70276253  0.42692638  0.61145464    -0.40000
H1435       H  0.67025246  0.39927390  0.02746853     0.12800
H1436       H  0.64497771  0.36561446  0.02394316     0.12400
H1437       H  0.66301132  0.34943464  0.63049098     0.11900
H1438       H  0.68673881  0.38423934  0.63458936     0.12100
H1439       H  0.64520855  0.32030720  0.59044446     0.14900
H1440       H  0.61180242  0.34423528  0.03850910     0.13600
H1441       H  0.69934700  0.42238523  0.55783147     0.11300
H1442       H  0.69630800  0.42296946  0.63714135     0.13300
C1443       C  0.64501090  0.20538013  0.52764756     0.19400
C1444       C  0.63769720  0.18311841  0.53710783    -0.18700
C1445       C  0.65267448  0.16447621  0.53496816    -0.11000
C1446       C  0.67529901  0.16774940  0.52303459     0.21700
C1447       C  0.68231799  0.18979986  0.51222411    -0.20300
C1448       C  0.66739568  0.20843983  0.51448022    -0.11100
C1449       C  0.69199674  0.14868703  0.52054008    -0.15300
C1450       C  0.69107728  0.12931934  0.53971548    -0.29200
C1451       C  0.62729676  0.22388013  0.03923901    -0.03400
C1452       C  0.63334604  0.24611575  0.03451878    -0.40000
H1453       H  0.62035602  0.18015975  0.54648445     0.12800
H1454       H  0.64637686  0.14756870  0.54227305     0.12400
H1455       H  0.69952084  0.19266509  0.50223555     0.11900
H1456       H  0.67346070  0.22504702  0.50546912     0.12100
H1457       H  0.70659903  0.15139490  0.50337377     0.14900
H1458       H  0.67747589  0.12649978  0.55850620     0.13600
H1459       H  0.60988458  0.21948427  0.04702482     0.11300
H1460       H  0.65128786  0.25058374  0.03027816     0.13300
C1461       C  0.82422861  0.15774126  0.56282024     0.19400
C1462       C  0.83781623  0.15949737  0.59266174    -0.18700
C1463       C  0.85046738  0.17952569  0.59956085    -0.11000
C1464       C  0.84969922  0.19838093  0.57669618     0.21700
C1465       C  0.83668942  0.19629095  0.54620323    -0.20300
C1466       C  0.82415550  0.17611842  0.53916704    -0.11100
C1467       C  0.86046751  0.22103069  0.58531769    -0.15300
C1468       C  0.87782519  0.22352272  0.60814143    -0.29200
C1469       C  0.80786389  0.13815079  0.56004847    -0.03400
C1470       C  0.79939105  0.12985763  0.53011977    -0.40000
H1471       H  0.83792420  0.14563874  0.61142909     0.12800
H1472       H  0.85974337  0.18049345  0.62374717     0.12400
H1473       H  0.83564683  0.21058790  0.52829896     0.11900
H1474       H  0.81342686  0.17550123  0.51630440     0.12100
H1475       H  0.85389092  0.23606954  0.57208444     0.14900
H1476       H  0.88580862  0.20829442  0.61883318     0.13600
H1477       H  0.80200810  0.13054370  0.58425289     0.11300
H1478       H  0.80593552  0.13589080  0.50539540     0.13300
C1479       C  0.83018838  0.38790097  0.62218850     0.19400
C1480       C  0.82359075  0.36723687  0.63833283    -0.18700
C1481       C  0.83867274  0.34874636  0.64045659    -0.11000
C1482       C  0.86097379  0.35036372  0.62648107     0.21700
C1483       C  0.86799932  0.37138132  0.61146444    -0.20300
C1484       C  0.85271178  0.38996835  0.60906824    -0.11100
C1485       C  0.87710717  0.33047074  0.62787285    -0.15300
C1486       C  0.86950316  0.30841155  0.62825151    -0.29200
C1487       C  0.81307665  0.40681783  0.62122632    -0.03400
C1488       C  0.81231715  0.42386645  0.59753473    -0.40000
H1489       H  0.80651513  0.36530395  0.64926663     0.12800
H1490       H  0.83282351  0.33331600  0.65358454     0.12400
H1491       H  0.88524087  0.37330361  0.60114498     0.11900
H1492       H  0.85860986  0.40591085  0.59741591     0.12100
H1493       H  0.89544544  0.33407085  0.62683072     0.14900
H1494       H  0.85116598  0.30512987  0.62584096     0.13600
H1495       H  0.79934378  0.40577871  0.64030264     0.11300
H1496       H  0.82523290  0.42515746  0.57731747     0.13300
C1497       C  0.02199846  0.27561403  0.71775719     0.19400
C1498       C  0.00909149  0.25561276  0.71101883    -0.18700
C1499       C  0.98590965  0.25699717  0.70190353    -0.11000
C1500       C  0.97512995  0.27852630  0.69914730     0.21700
C1501       C  0.98743856  0.29834565  0.70905713    -0.20300
C1502       C  0.01065660  0.29695230  0.71832231    -0.11100
C1503       C  0.95142987  0.28089258  0.68510042    -0.15300
C1504       C  0.94263117  0.26592411  0.66186920    -0.29200
C1505       C  0.04735042  0.27348862  0.72162977    -0.03400
C1506       C  0.06207742  0.29055865  0.71295299    -0.40000
H1507       H  0.01723390  0.23891406  0.71116165     0.12800
H1508       H  0.97668067  0.24116437  0.69631138     0.12400
H1509       H  0.97938542  0.31507074  0.70808764     0.11900
H1510       H  0.01969979  0.31267787  0.72505266     0.12100
H1511       H  0.94155396  0.29574502  0.69300830     0.14900
H1512       H  0.95294962  0.25141374  0.65377502     0.13600
H1513       H  0.05393752  0.25671516  0.72859355     0.11300
H1514       H  0.05528778  0.30727353  0.70623931     0.13300
C1515       C  0.14100410  0.20283614  0.68306246     0.19400
C1516       C  0.13770355  0.18833391  0.65429972    -0.18700
C1517       C  0.15198255  0.16927255  0.64881236    -0.11000
C1518       C  0.16967342  0.16415660  0.67241266     0.21700
C1519       C  0.17199972  0.17794048  0.70210600    -0.20300
C1520       C  0.15794402  0.19701177  0.70737954    -0.11100
C1521       C  0.18643353  0.14509171  0.66746127    -0.15300
C1522       C  0.19050950  0.13391052  0.63745034    -0.29200
C1523       C  0.12685571  0.22401861  0.68705851    -0.03400
C1524       C  0.13522687  0.24335640  0.70211083    -0.40000
H1525       H  0.12444274  0.19212779  0.63552416     0.12800
H1526       H  0.14910095  0.15873108  0.62614308     0.12400
H1527       H  0.18515210  0.17423378  0.72110565     0.11900
H1528       H  0.16042659  0.20718373  0.73056153     0.12100
H1529       H  0.19718733  0.14101904  0.68959511     0.14900
H1530       H  0.18049098  0.13746685  0.61447395     0.13600
H1531       H  0.11000798  0.22426091  0.67497474     0.11300
H1532       H  0.15295472  0.24359036  0.71090488     0.13300
C1533       C  0.46735946  0.28329325  0.00545301     0.19400
C1534       C  0.48149968  0.26399849  0.00217581    -0.18700
C1535       C  0.50532707  0.26669949  0.99952865    -0.11000
C1536       C  0.51540446  0.28882564  0.00018941     0.21700
C1537       C  0.50108704  0.30808085  0.99925426    -0.20300
C1538       C  0.47724063  0.30539170  0.00193944    -0.11100
C1539       C  0.54053426  0.29247435  0.00425330    -0.15300
C1540       C  0.55407167  0.27703528  0.01998240    -0.29200
C1541       C  0.44282084  0.27966102  0.01490043    -0.03400
C1542       C  0.43105378  0.29501582  0.03396845    -0.40000
H1543       H  0.47426112  0.24679077  0.00375820     0.12800
H1544       H  0.51573995  0.25144149  0.99793985     0.12400
H1545       H  0.50825963  0.32559554  0.49692385     0.11900
H1546       H  0.46676406  0.32065520  0.00243253     0.12100
H1547       H  0.54773138  0.30907560  0.99651579     0.14900
H1548       H  0.54703592  0.26044541  0.02794573     0.13600
H1549       H  0.43512825  0.26317816  0.00849945     0.11300
H1550       H  0.43914755  0.31130563  0.04054235     0.13300
C1551       C  0.34049292  0.21357305  0.59654408     0.19400
C1552       C  0.33159453  0.20627625  0.62852920    -0.18700
C1553       C  0.31986116  0.18521206  0.63148198    -0.11000
C1554       C  0.31655129  0.17113928  0.60225791     0.21700
C1555       C  0.32564063  0.17832714  0.57034388    -0.20300
C1556       C  0.32995668  0.20402641  0.06287692    -0.11100
C1557       C  0.30148361  0.15038636  0.60316825    -0.15300
C1558       C  0.29716308  0.13784234  0.63179135    -0.29200
C1559       C  0.35091719  0.23696901  0.59368023    -0.03400
C1560       C  0.36508671  0.24280078  0.06761174    -0.40000
H1561       H  0.33333200  0.21713984  0.65118382     0.12800
H1562       H  0.31251059  0.18056752  0.65626556     0.12400
H1563       H  0.30943701  0.17731077  0.03991104     0.11900
H1564       H  0.33189632  0.21307594  0.03844898     0.12100
H1565       H  0.29306264  0.14556135  0.57909093     0.14900
H1566       H  0.30631672  0.14123814  0.65572801     0.13600
H1567       H  0.34563062  0.24980203  0.61245000     0.11300
H1568       H  0.36912722  0.23092296  0.04690074     0.13300
C1569       C  0.17540697  0.41024443  0.69201156     0.19400
C1570       C  0.17898086  0.39297800  0.71680060    -0.18700
C1571       C  0.16478273  0.37350930  0.71826456    -0.11000
C1572       C  0.14656540  0.37069166  0.69475040     0.21700
C1573       C  0.14217952  0.38845573  0.67099391    -0.20300
C1574       C  0.15653281  0.40800830  0.66940135    -0.11100
C1575       C  0.13178209  0.34959802  0.69484787    -0.15300
C1576       C  0.13920901  0.32896258  0.70626333    -0.29200
C1577       C  0.19240651  0.42957355  0.69061393    -0.03400
C1578       C  0.19428141  0.44538958  0.66519002    -0.40000
H1579       H  0.19313919  0.39434079  0.73492013     0.12800
H1580       H  0.16813558  0.36077882  0.73799006     0.12400
H1581       H  0.12789291  0.38698054  0.65312880     0.11900
H1582       H  0.15277988  0.42111455  0.65045200     0.12100
H1583       H  0.11477564  0.35091287  0.68350929     0.14900
H1584       H  0.15698661  0.32718954  0.71426367     0.13600
H1585       H  0.20535353  0.42978203  0.71091209     0.11300
H1586       H  0.18205737  0.44595524  0.64406841     0.13300
C1587       C  0.33416420  0.35539187  0.60604124     0.19400
C1588       C  0.33417497  0.36525634  0.63918249    -0.18700
C1589       C  0.32260894  0.38587852  0.64548795    -0.11000
C1590       C  0.31059924  0.39689635  0.61866357     0.21700
C1591       C  0.31048745  0.38685416  0.58560083    -0.20300
C1592       C  0.32215333  0.36637595  0.57928876    -0.11100
C1593       C  0.29683144  0.41801488  0.62406586    -0.15300
C1594       C  0.29823441  0.43196253  0.65187059    -0.29200
C1595       C  0.34641119  0.33344016  0.60011110    -0.03400
C1596       C  0.36028282  0.32893124  0.08214686    -0.40000
H1597       H  0.34321066  0.35700318  0.66021645     0.12800
H1598       H  0.32273136  0.39269863  0.67150097     0.12400
H1599       H  0.31204951  0.39963003  0.06979773     0.11900
H1600       H  0.33055386  0.36298680  0.05805259     0.12100
H1601       H  0.28469788  0.42229092  0.60371810     0.14900
H1602       H  0.31044539  0.42885388  0.67246999     0.13600
H1603       H  0.34810556  0.32150353  0.62159110     0.11300
H1604       H  0.36587781  0.34469719  0.06935508     0.13300
C1605       C  0.60800995  0.95849552  0.89326866     0.19400
C1606       C  0.59897070  0.94683623  0.86439373    -0.18700
C1607       C  0.57736388  0.93600309  0.86607287    -0.11000
C1608       C  0.56420695  0.93695449  0.89662030     0.21700
C1609       C  0.57337289  0.94839279  0.92553844    -0.20300
C1610       C  0.59511225  0.95885749  0.92405088    -0.11100
C1611       C  0.54047886  0.92727656  0.89882158    -0.15300
C1612       C  0.53346977  0.90869621  0.88073826    -0.29200
C1613       C  0.62936396  0.97253389  0.88929334    -0.03400
C1614       C  0.64355058  0.97787042  0.91570109    -0.40000
H1615       H  0.60843086  0.94657495  0.84024770     0.12800
H1616       H  0.57065013  0.92773752  0.84303734     0.12400
H1617       H  0.56352242  0.94950055  0.94926084     0.11900
H1618       H  0.60123606  0.96818785  0.94653025     0.12100
H1619       H  0.52893336  0.93482011  0.91768263     0.14900
H1620       H  0.54575412  0.89978139  0.86448318     0.13600
H1621       H  0.63309937  0.97941932  0.86372643     0.11300
H1622       H  0.64108290  0.97002673  0.94093778     0.13300
C1623       C  0.40973858  0.92346547  0.92767493     0.19400
C1624       C  0.39584350  0.91933230  0.95684677    -0.18700
C1625       C  0.37817850  0.93456422  0.96576494    -0.11000
C1626       C  0.37386548  0.95407060  0.94522448     0.21700
C1627       C  0.38710717  0.95748529  0.91519020    -0.20300
C1628       C  0.40479666  0.94244509  0.90650262    -0.11100
C1629       C  0.35594177  0.97143999  0.95347170    -0.15300
C1630       C  0.34497853  0.97386628  0.98410166    -0.29200
C1631       C  0.42920923  0.90780986  0.91974645    -0.03400
C1632       C  0.44871693  0.91534973  0.90428160    -0.40000
H1633       H  0.39895111  0.90451820  0.97313578     0.12800
H1634       H  0.36799060  0.93090121  0.98854673     0.12400
H1635       H  0.38396472  0.97210364  0.89848741     0.11900
H1636       H  0.41450837  0.94569639  0.88307713     0.12100
H1637       H  0.35236521  0.98387935  0.93319877     0.14900
H1638       H  0.34808211  0.96218769  0.00542532     0.13600
H1639       H  0.42801413  0.89019201  0.92897127     0.11300
H1640       H  0.45053696  0.93356731  0.89844476     0.13300
C1641       C  0.57810924  0.12179588  0.46939470     0.19400
C1642       C  0.57971390  0.10998629  0.43779727    -0.18700
C1643       C  0.59900173  0.09673846  0.43009845    -0.11000
C1644       C  0.61698615  0.09487006  0.45415049     0.21700
C1645       C  0.61562274  0.10695381  0.48547530    -0.20300
C1646       C  0.59648985  0.12041124  0.49301452    -0.11100
C1647       C  0.63609642  0.07859044  0.44910297    -0.15300
C1648       C  0.64450521  0.07260248  0.41797938    -0.29200
C1649       C  0.55617262  0.13335977  0.47818535    -0.03400
C1650       C  0.55424555  0.14924354  0.50333348    -0.40000
H1651       H  0.56568990  0.11050860  0.41936807     0.12800
H1652       H  0.60309580  0.09790830  0.89513562     0.12400
H1653       H  0.62917425  0.10551595  0.50456662     0.11900
H1654       H  0.59579644  0.12868061  0.51804131     0.12100
H1655       H  0.64358656  0.07117073  0.47230695     0.14900
H1656       H  0.64231775  0.09204658  0.88667684     0.13600
H1657       H  0.54102040  0.12840378  0.46346037     0.11300
H1658       H  0.56960060  0.15596315  0.51582070     0.13300
C1659       C  0.38899946  0.10203951  0.52142659     0.19400
C1660       C  0.40902288  0.09620998  0.53954583    -0.18700
C1661       C  0.42809741  0.11097441  0.54000181    -0.11000
C1662       C  0.42767107  0.13213409  0.52236812     0.21700
C1663       C  0.40744083  0.13838432  0.50499600    -0.20300
C1664       C  0.38830465  0.12343345  0.50426436    -0.11100
C1665       C  0.44793037  0.14804805  0.52275198    -0.15300
C1666       C  0.46964746  0.14018525  0.52418838    -0.29200
C1667       C  0.36934845  0.08537721  0.52224475    -0.03400
C1668       C  0.35157180  0.08504784  0.49988325    -0.40000
H1669       H  0.40996782  0.08003610  0.55342866     0.12800
H1670       H  0.44303983  0.10590438  0.55473585     0.12400
H1671       H  0.40653411  0.15477418  0.49168914     0.11900
H1672       H  0.37300844  0.12885761  0.49074176     0.12100
H1673       H  0.44492565  0.16640797  0.52039325     0.14900
H1674       H  0.47243131  0.12172741  0.52290374     0.13600
H1675       H  0.37017847  0.07182555  0.54160529     0.11300
H1676       H  0.35040842  0.09768657  0.47931982     0.13300
C1677       C  0.49969851  0.24860256  0.58773420     0.19400
C1678       C  0.48026316  0.26268141  0.58885052    -0.18700
C1679       C  0.48272994  0.28664534  0.59064021    -0.11000
C1680       C  0.50478072  0.29690065  0.59153996     0.21700
C1681       C  0.52399166  0.28264636  0.59466190    -0.20300
C1682       C  0.52152231  0.25874497  0.59294088    -0.11100
C1683       C  0.50878611  0.32204199  0.58687695    -0.15300
C1684       C  0.49346964  0.33614395  0.57179523    -0.29200
C1685       C  0.49693582  0.22397426  0.57774397    -0.03400
C1686       C  0.51326826  0.21319374  0.55924676    -0.40000
H1687       H  0.46320201  0.25526828  0.58587506     0.12800
H1688       H  0.46735752  0.29693043  0.59006505     0.12400
H1689       H  0.54114436  0.29002724  0.59643096     0.11900
H1690       H  0.53684515  0.24837831  0.59426768     0.12100
H1691       H  0.52572993  0.32861709  0.59349594     0.14900
H1692       H  0.47640321  0.32979961  0.56560562     0.13600
H1693       H  0.48055256  0.21557428  0.58282606     0.11300
H1694       H  0.52907833  0.22249859  0.55347730     0.13300
C1695       C  0.38980442  0.46023520  0.54784625     0.19400
C1696       C  0.41031708  0.46293144  0.56656541    -0.18700
C1697       C  0.42802302  0.44701991  0.56323375    -0.11000
C1698       C  0.42553617  0.42786028  0.54124504     0.21700
C1699       C  0.40475122  0.42471898  0.52334235    -0.20300
C1700       C  0.38706336  0.44079118  0.52643506    -0.11100
C1701       C  0.44379131  0.41023714  0.53846255    -0.15300
C1702       C  0.46625311  0.41548289  0.54241386    -0.29200
C1703       C  0.37181663  0.47805000  0.55168579    -0.03400
C1704       C  0.35559728  0.48230955  0.52773864    -0.40000
H1705       H  0.41273948  0.47753679  0.58367003     0.12800
H1706       H  0.44343804  0.44952486  0.57852281     0.12400
H1707       H  0.40223397  0.40982686  0.50685319     0.11900
H1708       H  0.37122102  0.43770855  0.51245665     0.12100
H1709       H  0.43852564  0.39266452  0.53273531     0.14900
H1710       H  0.47140211  0.43345451  0.54457386     0.13600
H1711       H  0.37300837  0.48925848  0.57416730     0.11300
H1712       H  0.35457459  0.47221469  0.50418032     0.13300
C1713       C  0.62218474  0.44667690  0.50297435     0.19400
C1714       C  0.61622992  0.43577119  0.53415618    -0.18700
C1715       C  0.59539359  0.42376815  0.53737742    -0.11000
C1716       C  0.57996051  0.42257592  0.50937632     0.21700
C1717       C  0.58629989  0.43279008  0.47782726    -0.20300
C1718       C  0.60723240  0.44463582  0.47453284    -0.11100
C1719       C  0.55630488  0.41302927  0.51315821    -0.15300
C1720       C  0.55014796  0.39779912  0.53777283    -0.29200
C1721       C  0.64230257  0.46257260  0.50254137    -0.03400
C1722       C  0.65353359  0.46906573  0.47365258    -0.40000
H1723       H  0.62735699  0.43729259  0.55653186     0.12800
H1724       H  0.59098243  0.41660991  0.56236712     0.12400
H1725       H  0.57464369  0.43228245  0.45597018     0.11900
H1726       H  0.61295801  0.45179324  0.95433491     0.12100
H1727       H  0.54340946  0.41883470  0.49486221     0.14900
H1728       H  0.56317508  0.39006634  0.55406121     0.13600
H1729       H  0.64756801  0.46996129  0.52719107     0.11300
H1730       H  0.65151362  0.46005554  0.95078864     0.13300
C1731       C  0.49730897  0.79915018  0.86413950     0.19400
C1732       C  0.51796834  0.78690076  0.86536243    -0.18700
C1733       C  0.51791129  0.76352547  0.87395947    -0.11000
C1734       C  0.49707010  0.75197443  0.88098044     0.21700
C1735       C  0.47631414  0.76365960  0.87595393    -0.20300
C1736       C  0.47639112  0.78708385  0.86779223    -0.11100
C1737       C  0.49611366  0.72833535  0.89546817    -0.15300
C1738       C  0.51284702  0.71940219  0.91545338    -0.29200
C1739       C  0.49836966  0.82460352  0.86178482    -0.03400
C1740       C  0.48318164  0.83817148  0.87828141    -0.40000
H1741       H  0.53428025  0.79574496  0.86176942     0.12800
H1742       H  0.53421679  0.75481827  0.87610602     0.12400
H1743       H  0.45999218  0.75499444  0.88036744     0.11900
H1744       H  0.46010042  0.79582906  0.86555092     0.12100
H1745       H  0.48012446  0.71886988  0.89194786     0.14900
H1746       H  0.52903745  0.72856192  0.91845914     0.13600
H1747       H  0.51332240  0.83210529  0.84917012     0.11300
H1748       H  0.46836162  0.83036317  0.89084688     0.13300
C1749       C  0.58611230  0.63434268  0.96753102     0.19400
C1750       C  0.60264334  0.62957624  0.94213866    -0.18700
C1751       C  0.62092302  0.61486293  0.94915776    -0.11000
C1752       C  0.62314023  0.60453777  0.98192908     0.21700
C1753       C  0.60695673  0.60968315  0.00763941    -0.20300
C1754       C  0.58857621  0.62437545  0.00058537    -0.11100
C1755       C  0.64211246  0.58832668  0.98971738    -0.15300
C1756       C  0.65038098  0.57416084  0.96536817    -0.29200
C1757       C  0.56694598  0.65008450  0.95853204    -0.03400
C1758       C  0.54676892  0.65042895  0.97561684    -0.40000
H1759       H  0.60136090  0.63720011  0.91662015     0.12800
H1760       H  0.63344628  0.61183574  0.92897768     0.12400
H1761       H  0.60840311  0.60210719  0.03315817     0.11900
H1762       H  0.57665562  0.62808868  0.02126035     0.12100
H1763       H  0.64817159  0.58682287  0.01620277     0.14900
H1764       H  0.64294930  0.57433048  0.93961658     0.13600
H1765       H  0.56905652  0.66058286  0.93548752     0.11300
H1766       H  0.54388830  0.63846152  0.99677023     0.13300
C1767       C  0.39090838  0.61462381  0.01805818     0.19400
C1768       C  0.39441225  0.62762296  0.98794344    -0.18700
C1769       C  0.41521374  0.63916027  0.98226974    -0.11000
C1770       C  0.43306149  0.63800987  0.00684770     0.21700
C1771       C  0.42918937  0.62564241  0.03758321    -0.20300
C1772       C  0.40832666  0.61405746  0.04321708    -0.11100
C1773       C  0.45642966  0.64775687  0.00037480    -0.15300
C1774       C  0.46155226  0.66198010  0.97390687    -0.29200
C1775       C  0.37046620  0.59931462  0.01972534    -0.03400
C1776       C  0.36168664  0.59035791  0.04900977    -0.40000
H1777       H  0.38131610  0.62811205  0.96804401     0.12800
H1778       H  0.41730639  0.64797093  0.95786757     0.12400
H1779       H  0.44264242  0.62427358  0.05680642     0.11900
H1780       H  0.40643846  0.60371830  0.06633904     0.12100
H1781       H  0.46995846  0.64278196  0.01813050     0.14900
H1782       H  0.44795278  0.66868254  0.95776636     0.13600
H1783       H  0.36276850  0.59438451  0.99513289     0.11300
H1784       H  0.36770187  0.59597546  0.07422927     0.13300
C1785       C  0.07530539  0.13205921  0.69786185     0.19400
C1786       C  0.07587174  0.11700758  0.72628883    -0.18700
C1787       C  0.09557660  0.10421817  0.73355169    -0.11000
C1788       C  0.11507303  0.10600135  0.71215061     0.21700
C1789       C  0.11482008  0.12160655  0.68442386    -0.20300
C1790       C  0.09525362  0.13467315  0.67747391    -0.11100
C1791       C  0.13456618  0.08977371  0.71526181    -0.15300
C1792       C  0.14133054  0.08024608  0.74529992    -0.29200
C1793       C  0.05304279  0.14283206  0.68829199    -0.03400
C1794       C  0.05146327  0.16208455  0.66903161    -0.40000
H1795       H  0.06074204  0.11457242  0.74228049     0.12800
H1796       H  0.09500032  0.09199579  0.75468577     0.12400
H1797       H  0.12954399  0.12309636  0.66737923     0.11900
H1798       H  0.09546756  0.14574140  0.65495915     0.12100
H1799       H  0.14345446  0.08513431  0.69154757     0.14900
H1800       H  0.13388146  0.08577460  0.76964681     0.13600
H1801       H  0.03746190  0.13462674  0.69791334     0.11300
H1802       H  0.06707955  0.17142969  0.66219278     0.13300
C1803       C  0.93702420  0.12745717  0.65547677     0.19400
C1804       C  0.92476358  0.12076731  0.68519726    -0.18700
C1805       C  0.90368305  0.10897789  0.68241604    -0.11000
C1806       C  0.89457789  0.10339384  0.64967374     0.21700
C1807       C  0.90703748  0.10985524  0.62003593    -0.20300
C1808       C  0.92794007  0.12182050  0.62281432    -0.11100
C1809       C  0.87334741  0.08913908  0.64521658    -0.15300
C1810       C  0.85665902  0.08673443  0.66921830    -0.29200
C1811       C  0.95954009  0.13961102  0.65919672    -0.03400
C1812       C  0.96714831  0.15524140  0.63604862    -0.40000
H1813       H  0.93154036  0.12466090  0.71066873     0.12800
H1814       H  0.89501292  0.10368322  0.70589425     0.12400
H1815       H  0.90067152  0.10540075  0.59452655     0.11900
H1816       H  0.93722926  0.12609081  0.59937488     0.12100
H1817       H  0.87159105  0.07982393  0.62094345     0.14900
H1818       H  0.85733489  0.09646176  0.69315570     0.13600
H1819       H  0.96939443  0.13674901  0.68266268     0.11300
H1820       H  0.95617229  0.15994832  0.61448538     0.13300
C1821       C  0.06977324  0.92069230  0.77541967     0.19400
C1822       C  0.08968839  0.91547442  0.75652261    -0.18700
C1823       C  0.10761035  0.93169727  0.75351613    -0.11000
C1824       C  0.10587679  0.95336356  0.76966774     0.21700
C1825       C  0.08658252  0.95785917  0.79029371    -0.20300
C1826       C  0.06883725  0.94171793  0.79336048    -0.11100
C1827       C  0.12376652  0.97168711  0.76685796    -0.15300
C1828       C  0.14086466  0.97234728  0.74332464    -0.29200
C1829       C  0.04975147  0.90458434  0.77521641    -0.03400
C1830       C  0.02809301  0.91259778  0.77626494    -0.40000
H1831       H  0.09105422  0.89913478  0.74316716     0.12800
H1832       H  0.12260889  0.92720200  0.73851343     0.12400
H1833       H  0.08503962  0.97413665  0.80379651     0.11900
H1834       H  0.05425930  0.94587377  0.80955286     0.12100
H1835       H  0.12239937  0.98590772  0.78505793     0.14900
H1836       H  0.14257551  0.95904741  0.72382276     0.13600
H1837       H  0.05281704  0.88633231  0.77151787     0.11300
H1838       H  0.02553128  0.93110227  0.77630009     0.13300
C1839       C  0.88070129  0.96003434  0.70148389     0.19400
C1840       C  0.88104519  0.94651188  0.73152997    -0.18700
C1841       C  0.90071635  0.93433952  0.74063738    -0.11000
C1842       C  0.92057265  0.93557388  0.71979043     0.21700
C1843       C  0.92004533  0.94878145  0.68940910    -0.20300
C1844       C  0.90030176  0.96084786  0.68020245    -0.11100
C1845       C  0.94253976  0.92469952  0.73000900    -0.15300
C1846       C  0.94374088  0.90690053  0.75214794    -0.29200
C1847       C  0.86084129  0.97525404  0.69558612    -0.03400
C1848       C  0.85467957  0.98352282  0.66447627    -0.40000
H1849       H  0.86622665  0.94589426  0.74857914     0.12800
H1850       H  0.90051323  0.92489685  0.76473451     0.12400
H1851       H  0.93517461  0.95019226  0.67310524     0.11900
H1852       H  0.90084505  0.97162786  0.65738795     0.12100
H1853       H  0.95816327  0.93121427  0.71794822     0.14900
H1854       H  0.92801264  0.89891692  0.76164618     0.13600
H1855       H  0.85111319  0.98036955  0.71835881     0.11300
H1856       H  0.86298419  0.97767242  0.64092349     0.13300
C1857       C  0.99302681  0.80499819  0.83367400     0.19400
C1858       C  0.01220296  0.79208460  0.84324893    -0.18700
C1859       C  0.01002750  0.76842040  0.84898105    -0.11000
C1860       C  0.98855050  0.75729340  0.84498451     0.21700
C1861       C  0.96905768  0.77060719  0.83863108    -0.20300
C1862       C  0.97121264  0.79426917  0.83319236    -0.11100
C1863       C  0.98596488  0.73187756  0.84515682    -0.15300
C1864       C  0.00318530  0.71788546  0.83592754    -0.29200
C1865       C  0.99637897  0.82926077  0.82279647    -0.03400
C1866       C  0.98287971  0.83888007  0.79871542    -0.40000
H1867       H  0.02908740  0.80009616  0.84465099     0.12800
H1868       H  0.02529135  0.75891420  0.85562004     0.12400
H1869       H  0.95225428  0.76253911  0.83624212     0.11900
H1870       H  0.95584287  0.80396248  0.82776742     0.12100
H1871       H  0.96902569  0.72469886  0.85042201     0.14900
H1872       H  0.02009414  0.72504183  0.83056429     0.13600
H1873       H  0.01078509  0.83887664  0.83357469     0.11300
H1874       H  0.96875750  0.82892774  0.78784004     0.13300
C1875       C  0.11292970  0.59332902  0.81688821     0.19400
C1876       C  0.10013559  0.59664842  0.84728315    -0.18700
C1877       C  0.07874626  0.60744875  0.84608012    -0.11000
C1878       C  0.06960472  0.61468289  0.81427142     0.21700
C1879       C  0.08195399  0.61058859  0.78379481    -0.20300
C1880       C  0.10347051  0.60014824  0.78503528    -0.11100
C1881       C  0.04713324  0.62630080  0.81207417    -0.15300
C1882       C  0.04052905  0.64197062  0.83549235    -0.29200
C1883       C  0.13534176  0.58138960  0.81883780    -0.03400
C1884       C  0.15217334  0.58429135  0.79523835    -0.40000
H1885       H  0.10678603  0.59102035  0.87202244     0.12800
H1886       H  0.06924160  0.60985376  0.86988574     0.12400
H1887       H  0.07503716  0.61573399  0.75897333     0.11900
H1888       H  0.11237501  0.59700247  0.76093790     0.12100
H1889       H  0.03675125  0.62355001  0.78903486     0.14900
H1890       H  0.05206526  0.64674070  0.85647045     0.13600
H1891       H  0.13792221  0.56954364  0.84024112     0.11300
H1892       H  0.15042965  0.59682499  0.77460050     0.13300
C1893       C  0.88050173  0.61073657  0.77184868     0.19400
C1894       C  0.88985836  0.61285126  0.80518620    -0.18700
C1895       C  0.90834878  0.62766816  0.81156444    -0.11000
C1896       C  0.91807271  0.64076494  0.78470086     0.21700
C1897       C  0.90796570  0.63985099  0.75173411    -0.20300
C1898       C  0.88942626  0.62478941  0.74519220    -0.11100
C1899       C  0.93935928  0.65448978  0.79074554    -0.15300
C1900       C  0.95658200  0.64583496  0.80992060    -0.29200
C1901       C  0.86281773  0.59239670  0.76637878    -0.03400
C1902       C  0.85146574  0.58796989  0.73667583    -0.40000
H1903       H  0.88318381  0.60254799  0.82635531     0.12800
H1904       H  0.91533213  0.62858469  0.83752469     0.12400
H1905       H  0.91507501  0.64999646  0.73071885     0.11900
H1906       H  0.88276053  0.62376315  0.71913996     0.12100
H1907       H  0.94148460  0.67093299  0.77769668     0.14900
H1908       H  0.95498460  0.62830799  0.81957274     0.13600
H1909       H  0.85961936  0.58104726  0.78826346     0.11300
H1910       H  0.85328305  0.59903426  0.71426436     0.13300
C1911       C  0.02204425  0.27065213  0.62307487     0.19400
C1912       C  0.04105233  0.28454912  0.63168868    -0.18700
C1913       C  0.03837440  0.30814531  0.63739186    -0.11000
C1914       C  0.01650585  0.31822308  0.63501774     0.21700
C1915       C  0.99803166  0.30483415  0.62304790    -0.20300
C1916       C  0.00074187  0.28130676  0.61692699    -0.11100
C1917       C  0.01244892  0.34250135  0.64519421    -0.15300
C1918       C  0.02472347  0.35282338  0.67031074    -0.29200
C1919       C  0.02477924  0.24517940  0.62330123    -0.03400
C1920       C  0.00688341  0.23058719  0.62795572    -0.40000
H1921       H  0.05780795  0.27698456  0.63562179     0.12800
H1922       H  0.05333429  0.31830944  0.64445679     0.12400
H1923       H  0.98120500  0.31237395  0.61985915     0.11900
H1924       H  0.98589459  0.27161533  0.60824810     0.12100
H1925       H  0.99895028  0.35190123  0.63210316     0.14900
H1926       H  0.03804421  0.34325160  0.68351801     0.13600
H1927       H  0.04214520  0.23855106  0.62267478     0.11300
H1928       H  0.98959551  0.23727186  0.62863325     0.13300
C1929       C  0.14184019  0.45982725  0.73893575     0.19400
C1930       C  0.13147825  0.46066472  0.70618107    -0.18700
C1931       C  0.11334970  0.44589191  0.69781440    -0.11000
C1932       C  0.10513382  0.42987992  0.72212053     0.21700
C1933       C  0.11654529  0.42767328  0.75388978    -0.20300
C1934       C  0.13469504  0.44265690  0.76246336    -0.11100
C1935       C  0.08408606  0.41618867  0.71516190    -0.15300
C1936       C  0.06608065  0.42544921  0.69846719    -0.29200
C1937       C  0.15858874  0.47838166  0.74759093    -0.03400
C1938       C  0.16970033  0.48108431  0.77793549    -0.40000
H1939       H  0.13690975  0.47338809  0.68724300     0.12800
H1940       H  0.10545394  0.44731887  0.67256130     0.12400
H1941       H  0.11068128  0.41510436  0.77274153     0.11900
H1942       H  0.14237982  0.44116278  0.78776225     0.12100
H1943       H  0.08266620  0.39906604  0.72632299     0.14900
H1944       H  0.06682311  0.44345252  0.69081307     0.13600
H1945       H  0.16107738  0.49151076  0.72781365     0.11300
H1946       H  0.16841926  0.46842621  0.79844419     0.13300
C1947       C  0.90149219  0.46507503  0.70395071     0.19400
C1948       C  0.91930329  0.47059281  0.68073071    -0.18700
C1949       C  0.93845927  0.45641300  0.67732369    -0.11000
C1950       C  0.94039575  0.43623858  0.69727152     0.21700
C1951       C  0.92243025  0.43047976  0.72009603    -0.20300
C1952       C  0.90321440  0.44470350  0.72354156    -0.11100
C1953       C  0.96069215  0.42076006  0.69457850    -0.15300
C1954       C  0.98157259  0.42825750  0.68413875    -0.29200
C1955       C  0.88163323  0.48107748  0.70626835    -0.03400
C1956       C  0.86413431  0.47937908  0.72908232    -0.40000
H1957       H  0.91840272  0.48600505  0.66498510     0.12800
H1958       H  0.95146105  0.46118744  0.65857217     0.12400
H1959       H  0.92334984  0.41495350  0.73558288     0.11900
H1960       H  0.88987163  0.43948863  0.74142121     0.12100
H1961       H  0.95877129  0.40316334  0.70376943     0.14900
H1962       H  0.98401029  0.44638041  0.67818182     0.13600
H1963       H  0.88163967  0.49545046  0.68823308     0.11300
H1964       H  0.86327430  0.46558094  0.74788598     0.13300
C1965       C  0.64814132  0.85858958  0.79449110     0.19400
C1966       C  0.63975974  0.88108635  0.79715939    -0.18700
C1967       C  0.65220135  0.89959322  0.78329957    -0.11000
C1968       C  0.67313760  0.89585901  0.76605778     0.21700
C1969       C  0.68042816  0.87318944  0.76058438    -0.20300
C1970       C  0.66814036  0.85466213  0.77492653    -0.11100
C1971       C  0.68886557  0.91526620  0.75734377    -0.15300
C1972       C  0.69208037  0.93251168  0.77999896    -0.29200
C1973       C  0.63590256  0.83988090  0.81326855    -0.03400
C1974       C  0.64674658  0.82175170  0.82742074    -0.40000
H1975       H  0.62412476  0.88447591  0.81148803     0.12800
H1976       H  0.64587839  0.91689386  0.78713376     0.12400
H1977       H  0.69635351  0.86990556  0.74696631     0.11900
H1978       H  0.67454344  0.83739851  0.77126137     0.12100
H1979       H  0.70065057  0.91344062  0.73568998     0.14900
H1980       H  0.68222444  0.93270956  0.80388500     0.13600
H1981       H  0.61757223  0.84199483  0.81732330     0.11300
H1982       H  0.66507551  0.81963259  0.82320180     0.13300
C1983       C  0.69073943  0.66647789  0.85358947     0.19400
C1984       C  0.66746130  0.66996192  0.84583319    -0.18700
C1985       C  0.65763309  0.69177759  0.85004636    -0.11000
C1986       C  0.67110866  0.71057912  0.86156472     0.21700
C1987       C  0.69445675  0.70703931  0.86867871    -0.20300
C1988       C  0.70414601  0.68530774  0.86486297    -0.11100
C1989       C  0.66217063  0.73445948  0.86419440    -0.15300
C1990       C  0.63978063  0.73984583  0.86758807    -0.29200
C1991       C  0.70127705  0.64346996  0.84880660    -0.03400
C1992       C  0.71742079  0.63599631  0.87081321    -0.40000
H1993       H  0.65688121  0.65577674  0.83664025     0.12800
H1994       H  0.63972256  0.69394576  0.84335366     0.12400
H1995       H  0.70534253  0.72123450  0.87700336     0.11900
H1996       H  0.72233829  0.68339173  0.87000215     0.12100
H1997       H  0.67487526  0.74828615  0.86432296     0.14900
H1998       H  0.62703902  0.72625511  0.87086319     0.13600
H1999       H  0.69600557  0.63286310  0.82701144     0.11300
H2000       H  0.72152019  0.64619220  0.89359165     0.13300
C2001       C  0.85201903  0.85583921  0.76053983     0.19400
C2002       C  0.85719178  0.87584046  0.77968573    -0.18700
C2003       C  0.84180082  0.89429804  0.78067665    -0.11000
C2004       C  0.82096990  0.89310224  0.76221609     0.21700
C2005       C  0.81637768  0.87357816  0.74189680    -0.20300
C2006       C  0.83166481  0.85522066  0.74093186    -0.11100
C2007       C  0.80367383  0.91179014  0.76229126    -0.15300
C2008       C  0.80170760  0.92815055  0.78681041    -0.29200
C2009       C  0.86814700  0.83603352  0.76143250    -0.03400
C2010       C  0.86154609  0.81410680  0.75457192    -0.40000
H2011       H  0.87302641  0.87703939  0.79436774     0.12800
H2012       H  0.84635185  0.90940814  0.79563131     0.12400
H2013       H  0.80070205  0.87240703  0.72682094     0.11900
H2014       H  0.82745687  0.84069714  0.72453434     0.12100
H2015       H  0.79110847  0.91140020  0.74148407     0.14900
H2016       H  0.81344572  0.92890322  0.80857528     0.13600
H2017       H  0.88552813  0.83956642  0.77026529     0.11300
H2018       H  0.84362058  0.81046804  0.74886597     0.13300
C2019       C  0.86582363  0.68940425  0.79180211     0.19400
C2020       C  0.86890196  0.67690636  0.82254707    -0.18700
C2021       C  0.85559216  0.65715590  0.82938684    -0.11000
C2022       C  0.83913943  0.64938147  0.80522613     0.21700
C2023       C  0.83752169  0.66087684  0.77335579    -0.20300
C2024       C  0.85063260  0.68064780  0.76670051    -0.11100
C2025       C  0.82220180  0.63056978  0.81241366    -0.15300
C2026       C  0.81835119  0.62074608  0.84354301    -0.29200
C2027       C  0.87828510  0.71165635  0.78673155    -0.03400
C2028       C  0.86926301  0.72922778  0.76849767    -0.40000
H2029       H  0.88100562  0.68293832  0.84190395     0.12800
H2030       H  0.85802930  0.64842162  0.85377760     0.12400
H2031       H  0.82540580  0.65502218  0.75387821     0.11900
H2032       H  0.84859736  0.68922002  0.74203577     0.12100
H2033       H  0.81083095  0.62581711  0.79119118     0.14900
H2034       H  0.82925765  0.62444352  0.86559977     0.13600
H2035       H  0.89433806  0.71423013  0.80059769     0.11300
H2036       H  0.85208680  0.72735709  0.75777739     0.13300
C2037       C  0.54768378  0.79369151  0.94287157     0.19400
C2038       C  0.53305082  0.77635483  0.95567539    -0.18700
C2039       C  0.50991436  0.78093472  0.96252302    -0.11000
C2040       C  0.49613270  0.80141955  0.45541008     0.21700
C2041       C  0.51116426  0.81901227  0.44468788    -0.20300
C2042       C  0.53365733  0.81399450  0.43484199    -0.11100
C2043       C  0.47137377  0.80675991  0.45911008    -0.15300
C2044       C  0.45988525  0.79199366  0.95148587    -0.29200
C2045       C  0.57083832  0.78727217  0.92971631    -0.03400
C2046       C  0.58119373  0.79893380  0.90380613    -0.40000
H2047       H  0.53922952  0.75893862  0.95865258     0.12800
H2048       H  0.49898121  0.76691103  0.97118406     0.12400
H2049       H  0.50514404  0.83653462  0.44221337     0.11900
H2050       H  0.54448536  0.82795163  0.42569439     0.12100
H2051       H  0.46688841  0.82453338  0.46417607     0.14900
H2052       H  0.46514392  0.77438518  0.94697321     0.13600
H2053       H  0.57855965  0.77170889  0.93975925     0.11300
H2054       H  0.56745486  0.81180180  0.38713363     0.13300
C2055       C  0.33371487  0.90963179  0.89932888     0.19400
C2056       C  0.35238122  0.90182942  0.87960352    -0.18700
C2057       C  0.36618122  0.88382703  0.89183334    -0.11000
C2058       C  0.36159962  0.87360489  0.92423557     0.21700
C2059       C  0.34394102  0.88255969  0.94474038    -0.20300
C2060       C  0.33035466  0.90048535  0.93268876    -0.11100
C2061       C  0.37288194  0.85218158  0.93624737    -0.15300
C2062       C  0.39352818  0.84474114  0.92545324    -0.29200
C2063       C  0.31724947  0.92660714  0.88478306    -0.03400
C2064       C  0.29477354  0.92516846  0.89284972    -0.40000
H2065       H  0.35558732  0.90887360  0.85410333     0.12800
H2066       H  0.37958861  0.87728226  0.87522191     0.12400
H2067       H  0.34024499  0.87525902  0.96995192     0.11900
H2068       H  0.31687548  0.90684751  0.94936700     0.12100
H2069       H  0.36160346  0.84428449  0.45849414     0.14900
H2070       H  0.40423756  0.85564200  0.90913841     0.13600
H2071       H  0.32347811  0.94003291  0.86750181     0.11300
H2072       H  0.28871759  0.91105728  0.90899466     0.13300
C2073       C  0.98057712  0.76667567  0.74962673     0.19400
C2074       C  0.99475519  0.74776866  0.75608446    -0.18700
C2075       C  0.01824527  0.75101719  0.76225302    -0.11000
C2076       C  0.02791241  0.77336547  0.76240542     0.21700
C2077       C  0.01416722  0.79188356  0.75229130    -0.20300
C2078       C  0.99075592  0.78859796  0.74581448    -0.11100
C2079       C  0.05151927  0.77847179  0.77527404    -0.15300
C2080       C  0.06294397  0.76429374  0.79660977    -0.29200
C2081       C  0.95528819  0.76304796  0.74849480    -0.03400
C2082       C  0.94030870  0.77970481  0.75692170    -0.40000
H2083       H  0.98746232  0.73057888  0.75802332     0.12800
H2084       H  0.02847818  0.73602416  0.76784941     0.12400
H2085       H  0.02127767  0.80916852  0.75114646     0.11900
H2086       H  0.98065928  0.80339258  0.73868423     0.12100
H2087       H  0.05886561  0.79524154  0.76925309     0.14900
H2088       H  0.05583454  0.74747007  0.80272267     0.13600
H2089       H  0.94907372  0.74583552  0.74250217     0.11300
H2090       H  0.94669922  0.79682039  0.76303032     0.13300
C2091       C  0.14159093  0.85292843  0.87705451     0.19400
C2092       C  0.15081677  0.85935671  0.90926300    -0.18700
C2093       C  0.16174558  0.88073473  0.91361223    -0.11000
C2094       C  0.16403851  0.89598571  0.88568136     0.21700
C2095       C  0.15390400  0.89005662  0.85379603    -0.20300
C2096       C  0.14290459  0.86872091  0.84945992    -0.11100
C2097       C  0.17845188  0.91709425  0.88981567    -0.15300
C2098       C  0.19193274  0.92479502  0.86398667    -0.29200
C2099       C  0.13269591  0.82898729  0.87250329    -0.03400
C2100       C  0.11844685  0.82241174  0.84674788    -0.40000
H2101       H  0.15008361  0.84754416  0.93093168     0.12800
H2102       H  0.16934094  0.88492246  0.93844253     0.12400
H2103       H  0.15489158  0.90167087  0.83193587     0.11900
H2104       H  0.13638294  0.86438465  0.82406467     0.12100
H2105       H  0.18024213  0.92461145  0.91543987     0.14900
H2106       H  0.19168848  0.91603017  0.83917173     0.13600
H2107       H  0.13817379  0.81630802  0.89133346     0.11300
H2108       H  0.11113711  0.83532016  0.82982592     0.13300
C2109       C  0.36836794  0.71913920  0.94088108     0.19400
C2110       C  0.37533797  0.69804789  0.92654122    -0.18700
C2111       C  0.36027254  0.67908341  0.92526365    -0.11000
C2112       C  0.33784202  0.68081574  0.93850787     0.21700
C2113       C  0.33112488  0.70160125  0.95386709    -0.20300
C2114       C  0.34611010  0.72054003  0.95507169    -0.11100
C2115       C  0.32094680  0.66145135  0.93772237    -0.15300
C2116       C  0.32146822  0.64356808  0.91544530    -0.29200
C2117       C  0.38492274  0.73897209  0.94070774    -0.03400
C2118       C  0.37924187  0.76095347  0.94799804    -0.40000
H2119       H  0.39250462  0.69625937  0.91602582     0.12800
H2120       H  0.36633997  0.66313245  0.91425866     0.12400
H2121       H  0.31405604  0.70328840  0.96478744     0.11900
H2122       H  0.34006562  0.73601237  0.96743042     0.12100
H2123       H  0.30640178  0.66278430  0.95528747     0.14900
H2124       H  0.33504733  0.64208858  0.89635343     0.13600
H2125       H  0.39583820  0.73788428  0.42088831     0.11300
H2126       H  0.36152437  0.76523002  0.95354452     0.13300
C2127       C  0.19570048  0.67914445  0.88758009     0.19400
C2128       C  0.19120973  0.68829204  0.85473521    -0.18700
C2129       C  0.17621409  0.70664036  0.85079592    -0.11000
C2130       C  0.16532535  0.71632470  0.87971603     0.21700
C2131       C  0.17010158  0.70756877  0.91275837    -0.20300
C2132       C  0.18508858  0.68899432  0.91672328    -0.11100
C2133       C  0.14941561  0.73589586  0.87558059    -0.15300
C2134       C  0.13541156  0.73727386  0.84802710    -0.29200
C2135       C  0.21259903  0.66030384  0.88990834    -0.03400
C2136       C  0.21463685  0.64571436  0.91672974    -0.40000
H2137       H  0.19943494  0.68126735  0.83195506     0.12800
H2138       H  0.17347452  0.71349629  0.82508404     0.12400
H2139       H  0.16212160  0.71500625  0.93541738     0.11900
H2140       H  0.18865263  0.68281167  0.94254575     0.12100
H2141       H  0.14864889  0.74881631  0.89586636     0.14900
H2142       H  0.13464391  0.72298830  0.82987490     0.13600
H2143       H  0.22379514  0.65806915  0.86764096     0.11300
H2144       H  0.20330498  0.64667304  0.93897135     0.13300
loop_ 
_geom_bond_atom_site_label_1 
_geom_bond_atom_site_label_2 
_geom_bond_distance 
_geom_bond_site_symmetry_2 
_ccdc_geom_bond_type 
In1           O3   2.247       .  S
In1           O4   2.242       .  S
In1          O12   2.212       .  S
In1           O6   2.275       .  S
In1           O8   2.253       .  S
In1           O9   2.269       .  S
In1          O10   2.239       .  S
In1          O13   2.222       .  S
C2            O8   1.263       .  A
C2           O10   1.261       .  A
C2          C218   1.466       .  S
O3           C11   1.261       .  A
O4           C11   1.261       .  A
C5           O12   1.259       .  A
C5            O6   1.265       .  A
C5         C1064   1.478       .  S
C7            O9   1.263       .  A
C7           O13   1.259       .  A
C7         C1044   1.478       .  S
C11         C121   1.463       .  S
C14        C1008   1.479       .  S
C14          C15   1.406       .  A
C14          C19   1.397       .  A
C15          C16   1.409       .  A
C15          H20   1.084       .  S
C16        C1028   1.490       .  S
C16          C17   1.413       .  A
C17          C18   1.406       .  A
C17          H21   1.081       .  S
C18        C1062   1.480       .  S
C18          C19   1.397       .  A
C19          H22   1.085       .  S
C23        C2044   1.488       .  S
C23        C1096   1.411       .  A
C23        C1100   1.405       .  A
C24          C25   1.402       .  A
C24        C1095   1.411       .  A
C24          H29   1.081       .  S
C25         C990   1.483       .  S
C25          C26   1.405       .  A
C26          C27   1.400       .  A
C26          H30   1.084       .  S
C27        C1046   1.484       .  S
C27          C28   1.404       .  A
C28        C1095   1.404       .  A
C28        H1103   1.083       .  S
H31        C1100   1.083       .  S
In32         O34   2.209       .  S
In32         O35   2.284       .  S
In32         O43   2.221       .  S
In32         O37   2.256       .  S
In32         O39   2.257       .  S
In32         O40   2.252       .  S
In32         O41   2.229   1_565  S
In32         O44   2.239   1_565  S
C33          O39   1.265   1_545  A
C33          O41   1.261       .  A
C33         C253   1.466       .  S
O34          C42   1.255       .  A
O35          C42   1.267       .  A
C36          O43   1.262       .  A
C36          O37   1.269       .  A
C36        C1026   1.472       .  S
C38          O40   1.267   1_545  A
C38          O44   1.264       .  A
C38         C157   1.471       .  S
C42         C992   1.470       .  S
C45        C1010   1.489       .  S
C45          C46   1.406       .  A
C45          C50   1.411       .  A
C46          C47   1.407       .  A
C46          H51   1.082       .  S
C47         C938   1.485       .  S
C47          C48   1.400       .  A
C48          C49   1.399       .  A
C48          H52   1.085       .  S
C49         C956   1.477       .  S
C49          C50   1.403       .  A
C50          H53   1.080       .  S
In54         O56   2.215       .  S
In54         O57   2.274       .  S
In54         O65   2.199       .  S
In54         O59   2.261       .  S
In54         O61   2.238       .  S
In54         O62   2.250       .  S
In54         O63   2.241       .  S
In54         O66   2.225       .  S
C55          O61   1.263       .  A
C55          O63   1.263       .  A
C55         C192   1.464       .  S
O56          C64   1.258       .  A
O57          C64   1.268       .  A
C58          O65   1.261       .  A
C58          O59   1.267       .  A
C58         C954   1.474       .  S
C60          O62   1.267       .  A
C60          O66   1.263       .  A
C60         C104   1.466       .  S
C64         C920   1.473       .  S
C67         C974   1.484       .  S
C67          C68   1.410       .  A
C67          C72   1.404       .  A
C68          C69   1.403       .  A
C68          H73   1.081       .  S
C69         C918   1.487       .  S
C69          C70   1.407       .  A
C70          C71   1.401       .  A
C70          H74   1.084       .  S
C71         C902   1.486       .  S
C71          C72   1.404       .  A
C72          H75   1.081       .  S
In76         O78   2.245   1_565  S
In76         O79   2.263       .  S
In76         O87   2.268       .  S
In76         O81   2.233       .  S
In76         O83   2.268       .  S
In76         O84   2.268       .  S
In76         O85   2.246   1_565  S
In76         O88   2.228       .  S
C77          O83   1.262   1_545  A
C77          O85   1.258       .  A
C77         C174   1.469       .  S
O78          C86   1.257   1_545  A
O79          C86   1.259       .  A
C80          O87   1.261       .  A
C80          O81   1.258       .  A
C80         C900   1.477       .  S
C82          O84   1.262       .  A
C82          O88   1.258       .  A
C82         C936   1.475       .  S
C86         C240   1.465   1_565  S
C89         C846   1.479       .  S
C89          C90   1.400       .  A
C89          C94   1.411       .  A
C90          C91   1.398       .  A
C90          H95   1.084       .  S
C91         C864   1.479       .  S
C91          C92   1.398       .  A
C92          C93   1.404       .  A
C92          H96   1.085       .  S
C93         C882   1.487   1_455  S
C93          C94   1.412       .  A
C94          H97   1.081   1_455  S
In98        O100   2.232       .  S
In98        O101   2.262       .  S
In98        O109   2.226       .  S
In98        O103   2.277       .  S
In98        O105   2.261       .  S
In98        O106   2.236       .  S
In98        O107   2.244       .  S
In98        O110   2.253       .  S
C99         O105   1.263       .  A
C99         O107   1.260       .  A
C99         C341   1.470       .  S
O100        C108   1.260       .  A
O101        C108   1.262       .  A
C102        O109   1.259       .  A
C102        O103   1.265       .  A
C102        C830   1.482       .  S
C104        O106   1.262       .  A
C104        O110   1.263       .  A
C108        C884   1.477       .  S
C111        C792   1.481   1_655  S
C111        C112   1.412       .  A
C111        C116   1.400   1_655  A
C112        C113   1.410       .  A
C112        H117   1.082       .  S
C113        C828   1.484       .  S
C113        C114   1.406       .  A
C114        C115   1.403   1_655  A
C114        H118   1.084       .  S
C115        C810   1.481       .  S
C115        C116   1.396       .  A
C116        H119   1.084       .  S
In120       O122   2.245       .  S
In120       O123   2.235       .  S
In120       O131   2.198       .  S
In120       O125   2.276       .  S
In120       O127   2.242       .  S
In120       O128   2.254       .  S
In120       O129   2.233       .  S
In120       O132   2.231       .  S
C121        O127   1.263       .  A
C121        O129   1.262       .  A
O122        C130   1.262       .  A
O123        C130   1.263       .  A
C124        O131   1.258       .  A
C124        O125   1.265       .  A
C124        C866   1.473       .  S
C126        O128   1.263       .  A
C126        O132   1.261       .  A
C126        C812   1.475       .  S
C130        C266   1.464       .  S
C133        C794   1.482       .  S
C133        C134   1.399       .  A
C133        C138   1.409   1_655  A
C134        C135   1.397       .  A
C134        H139   1.085       .  S
C135        C774   1.483       .  S
C135        C136   1.404       .  A
C136        C137   1.406   1_655  A
C136        H140   1.082       .  S
C137        C758   1.483       .  S
C137        C138   1.410       .  A
C138        H141   1.081       .  S
C142        C848   1.483       .  S
C142        C143   1.399   1_455  A
C142        C147   1.409       .  A
C143        C144   1.398       .  A
C143        H148   1.086       .  S
C144        C740   1.480       .  S
C144        C145   1.406   1_655  A
C145        C146   1.411       .  A
C145        H149   1.083       .  S
C146        C722   1.490       .  S
C146        C147   1.407       .  A
C147        H150   1.082       .  S
In151       O153   2.235       .  S
In151       O154   2.272       .  S
In151       O162   2.236       .  S
In151       O156   2.270   1_545  S
In151       O158   2.241       .  S
In151       O159   2.254       .  S
In151       O160   2.244       .  S
In151       O163   2.251       .  S
C152        O158   1.262       .  A
C152        O160   1.263       .  A
C152        C288   1.465       .  S
O153        C161   1.259       .  A
O154        C161   1.264       .  A
C155        O162   1.259   1_565  A
C155        O156   1.262       .  A
C155        C756   1.480       .  S
C157        O159   1.263       .  A
C157        O163   1.261       .  A
C161        C720   1.478       .  S
In164       O166   2.249       .  S
In164       O167   2.243       .  S
In164       O175   2.193       .  S
In164       O169   2.256       .  S
In164       O171   2.244       .  S
In164       O172   2.264       .  S
In164       O173   2.228       .  S
In164       O176   2.228       .  S
C165        O171   1.262       .  A
C165        O173   1.262       .  A
C165        C319   1.460       .  S
O166        C174   1.262       .  A
O167        C174   1.264       .  A
C168        O175   1.260       .  A
C168        O169   1.265       .  A
C168        C776   1.467   1_545  S
C170        O172   1.264       .  A
C170        O176   1.259       .  A
C170        C738   1.478       .  S
C177        C666   1.488       .  S
C177        C178   1.408       .  A
C177        C182   1.406       .  A
C178        C179   1.410       .  A
C178        H183   1.082       .  S
C179        C686   1.487       .  S
C179        C180   1.401       .  A
C180        C181   1.404       .  A
C180        H184   1.081       .  S
C181        C702   1.484       .  S
C181        C182   1.399       .  A
C182        H185   1.082       .  S
In186       O189   2.259       .  S
In186       O197   2.217       .  S
In186       O191   2.292       .  S
In186       O194   2.249       .  S
In186       O198   2.235       .  S
In186      O1260   2.230       .  S
In186      O1265   2.260       .  S
In186      O1267   2.237       .  S
C187        O193   1.267       .  A
C187        O195   1.263   1_554  A
C187        C346   1.467       .  S
O188      In1258   2.234   1_554  S
O188        C196   1.261   1_554  A
O189       C1268   1.263       .  A
C190        O197   1.256       .  A
C190        O191   1.267       .  A
C190        C684   1.476       .  S
C192        O194   1.263       .  A
C192        O198   1.262       .  A
O193      In1258   2.247   1_554  S
O195      In1258   2.232       .  S
C196       O1261   1.264       .  A
C196        C650   1.475       .  S
C199        C612   1.488       .  S
C199        C200   1.410       .  A
C199        C204   1.405       .  A
C200        C201   1.402       .  A
C200        H205   1.083       .  S
C201        C648   1.485       .  S
C201        C202   1.405       .  A
C202        C203   1.402       .  A
C202        H206   1.084       .  S
C203        C630   1.487       .  S
C203        C204   1.408       .  A
C204        H207   1.083       .  S
In208       O213   2.267       .  S
In208       O215   2.240       .  S
In208       O217   2.257       .  S
In208       O220   2.217       .  S
In208      O1282   2.240       .  S
In208      O1283   2.230   1_554  S
In208      O1291   2.218       .  S
In208      O1288   2.265       .  S
C209        O215   1.259       .  A
C209        O217   1.261       .  A
C209        C275   1.465       .  S
O210      In1280   2.250       .  S
O210        C218   1.262       .  A
O211      In1280   2.242       .  S
O211        C218   1.262       .  A
C212        O219   1.259       .  A
C212       O1285   1.262       .  A
C212        C704   1.471       .  S
O213       C1284   1.262       .  A
C214        O220   1.257       .  A
C214       O1288   1.261       .  A
C214        C632   1.471       .  S
O216      In1280   2.258       .  S
O216       C1286   1.262       .  A
O219      In1280   2.210       .  S
C221        C614   1.484       .  S
C221        C222   1.401       .  A
C221        C226   1.411       .  A
C222        C223   1.394       .  A
C222        H227   1.086       .  S
C223        C578   1.480   1_554  S
C223        C224   1.402       .  A
C224        C225   1.404       .  A
C224        H228   1.083   1_554  S
C225        C594   1.484       .  S
C225        C226   1.413       .  A
C226        H229   1.083       .  S
C230        C668   1.486       .  S
C230        C231   1.406       .  A
C230        C235   1.407       .  A
C231        C232   1.408       .  A
C231        H236   1.083       .  S
C232        C560   1.487       .  S
C232        C233   1.406       .  A
C233        C234   1.405       .  A
C233        H237   1.083       .  S
C234        C540   1.480       .  S
C234        C235   1.398       .  A
C235        H238   1.082       .  S
In239       O241   2.239       .  S
In239       O244   2.261       .  S
In239       O246   2.236       .  S
In239       O247   2.256   1_545  S
In239       O248   2.250   1_545  S
In239       O251   2.220       .  S
In239      O1314   2.242       .  S
In239      O1322   2.215       .  S
C240        O246   1.262       .  A
C240        O248   1.263   1_545  A
O241       C1321   1.261       .  A
O242      In1311   2.244       .  S
O242        C249   1.263       .  A
C243        O244   1.264       .  A
C243       O1322   1.259       .  A
C243       C1648   1.472       .  S
C245        O247   1.264       .  A
C245        O251   1.260   1_565  A
C245        C542   1.473       .  S
C249       O1313   1.262       .  A
C249        C328   1.465       .  S
O250      In1311   2.210       .  S
O250       C1315   1.258       .  A
In252       O254   2.218       .  S
In252       O255   2.292   1_545  S
In252       O257   2.267       .  S
In252       O259   2.235       .  S
In252       O261   2.250       .  S
In252      O1335   2.239       .  S
In252      O1332   2.256       .  S
In252      O1336   2.244       .  S
C253        O259   1.264       .  A
C253        O261   1.264       .  A
O254        C262   1.258   1_545  A
O255        C262   1.267       .  A
C256        O263   1.262   1_556  A
C256       O1329   1.264       .  A
C256        C596   1.479       .  S
O257       C1328   1.263       .  A
C258        O260   1.266       .  A
C258        O264   1.261       .  A
C258        C293   1.473       .  S
O260      In1324   2.265   1_554  S
C262        C558   1.487       .  S
O263      In1324   2.239   1_554  S
O264      In1324   2.242   1_554  S
In265       O267   2.234       .  S
In265       O268   2.247       .  S
In265       O276   2.215       .  S
In265       O270   2.265       .  S
In265       O272   2.250       .  S
In265       O273   2.259       .  S
In265       O274   2.228       .  S
In265       O277   2.219       .  S
C266        O272   1.265       .  A
C266        O274   1.262       .  A
O267        C275   1.263       .  A
O268        C275   1.264       .  A
C269        O276   1.260       .  A
C269        O270   1.266       .  A
C269        C522   1.476       .  S
C271        O273   1.265       .  A
C271        O277   1.260       .  A
C271        C506   1.475       .  S
C278        C470   1.484       .  S
C278        C279   1.400       .  A
C278        C283   1.408       .  A
C279        C280   1.398       .  A
C279        H284   1.085       .  S
C280        C524   1.477       .  S
C280        C281   1.405       .  A
C281        C282   1.410       .  A
C281        H285   1.083       .  S
C282        C488   1.486       .  S
C282        C283   1.406       .  A
C283        H286   1.082       .  S
In287       O289   2.232       .  S
In287       O290   2.283       .  S
In287       O298   2.232       .  S
In287       O292   2.254       .  S
In287       O294   2.243       .  S
In287       O295   2.254       .  S
In287       O296   2.240       .  S
In287       O299   2.254       .  S
C288        O294   1.263       .  A
C288        O296   1.263       .  A
O289        C297   1.259       .  A
O290        C297   1.267       .  A
C291        O298   1.261       .  A
C291        O292   1.263       .  A
C291        C486   1.475       .  S
C293        O295   1.265       .  A
C293        O299   1.261       .  A
C297        C450   1.487       .  S
C300        C434   1.484       .  S
C300        C301   1.402       .  A
C300        C305   1.412       .  A
C301        C302   1.403       .  A
C301        H306   1.084       .  S
C302        C504   1.486       .  S
C302        C303   1.403       .  A
C303        C304   1.406       .  A
C303        H307   1.084       .  S
C304        C452   1.489       .  S
C304        C305   1.408       .  A
C305        H308   1.082       .  S
C309        C432   1.479       .  S
C309        C310   1.399       .  A
C309        C314   1.411       .  A
C310        C311   1.393       .  A
C310        H315   1.085       .  S
C311        C396   1.481       .  S
C311        C312   1.403       .  A
C312        C313   1.406       .  A
C312        H316   1.082       .  S
C313        C414   1.486       .  S
C313        C314   1.412       .  A
C314        H317   1.081       .  S
In318       O320   2.241       .  S
In318       O321   2.249   1_554  S
In318       O329   2.231       .  S
In318       O323   2.263       .  S
In318       O325   2.222       .  S
In318       O326   2.274       .  S
In318       O327   2.246       .  S
In318       O330   2.213       .  S
C319        O325   1.260       .  A
C319        O327   1.264       .  A
O320        C328   1.260   1_554  A
O321        C328   1.261       .  A
C322        O329   1.259       .  A
C322        O323   1.259       .  A
C322        C378   1.475       .  S
C324        O326   1.263       .  A
C324        O330   1.257       .  A
C324        C398   1.472       .  S
C331        C468   1.483       .  S
C331        C332   1.406       .  A
C331        C336   1.400       .  A
C332        C333   1.403       .  A
C332        H337   1.083       .  S
C333        C360   1.484       .  S
C333        C334   1.408       .  A
C334        C335   1.404       .  A
C334        H338   1.083       .  S
C335        C380   1.490       .  S
C335        C336   1.406       .  A
C336        H339   1.081       .  S
In340       O342   2.229       .  S
In340       O343   2.278       .  S
In340       O351   2.235       .  S
In340       O345   2.261       .  S
In340       O347   2.245       .  S
In340       O348   2.247       .  S
In340       O349   2.256       .  S
In340       O352   2.248       .  S
C341        O347   1.261       .  A
C341        O349   1.262       .  A
O342        C350   1.259       .  A
O343        C350   1.263       .  A
C344        O351   1.260       .  A
C344        O345   1.262       .  A
C344        C362   1.475       .  S
C346        O348   1.263       .  A
C346        O352   1.261       .  A
C350        C416   1.482       .  S
C353        C361   1.485       .  S
C353        C354   1.404       .  A
C353        C358   1.408       .  A
C354       C1427   1.396       .  A
C354       H1435   1.085       .  S
C355       C1426   1.396       .  A
C355       C1428   1.407       .  A
C355        H364   1.082       .  S
C356        C359   1.480       .  S
C356        C357   1.403       .  A
C356       C1427   1.405       .  A
C357        C358   1.399       .  A
C357        H365   1.083       .  S
C358        H366   1.083       .  S
C359        H367   1.088       .  S
C359       C1432   1.345       .  D
C360        H368   1.086       .  S
C360       C1431   1.346       .  D
C361        H369   1.088       .  S
C361        C362   1.346       .  D
C362        H370   1.085       .  S
H363       C1426   1.084       .  S
C371       C1451   1.484       .  S
C371        C372   1.405       .  A
C371        C376   1.404       .  A
C372        C373   1.402       .  A
C372        H381   1.083       .  S
C373        C374   1.408       .  A
C373        H382   1.081       .  S
C374        C377   1.484       .  S
C374        C375   1.403       .  A
C375        C376   1.393       .  A
C375        H383   1.082   1_554  S
C376        H384   1.084   1_554  S
C377        H385   1.087       .  S
C377        C378   1.345       .  D
C378        H386   1.084       .  S
C379       C1443   1.486       .  S
C379        H387   1.084       .  S
C379        C380   1.350       .  D
C380        H388   1.085       .  S
C389        C397   1.479       .  S
C389        C390   1.401       .  A
C389        C394   1.406       .  A
C390        C391   1.393       .  A
C390        H399   1.084       .  S
C391        C392   1.408       .  A
C391        H400   1.080       .  S
C392        C395   1.485       .  S
C392        C393   1.404       .  A
C393        C394   1.398       .  A
C393        H401   1.083       .  S
C394        H402   1.082       .  S
C395        H403   1.085       .  S
C395        C396   1.344       .  D
C396        H404   1.084       .  S
C397        H405   1.088       .  S
C397        C398   1.345       .  D
C398        H406   1.085       .  S
C407        C415   1.484       .  S
C407        C408   1.401       .  A
C407        C412   1.408       .  A
C408        C409   1.393       .  A
C408        H417   1.084       .  S
C409        C410   1.405       .  A
C409        H418   1.083       .  S
C410        C413   1.489       .  S
C410        C411   1.406       .  A
C411        C412   1.406       .  A
C411        H419   1.083       .  S
C412        H420   1.082       .  S
C413        H421   1.085       .  S
C413        C414   1.347       .  D
C414        H422   1.086       .  S
C415        H423   1.088       .  S
C415        C416   1.347       .  D
C416        H424   1.086       .  S
C425        C433   1.485       .  S
C425        C426   1.400       .  A
C425        C430   1.410       .  A
C426        C427   1.394   1_455  A
C426        H435   1.084       .  S
C427        C428   1.409       .  A
C427        H436   1.082       .  S
C428        C431   1.486       .  S
C428        C429   1.401       .  A
C429        C430   1.399   1_655  A
C429        H437   1.083       .  S
C430        H438   1.081       .  S
C431        H439   1.085       .  S
C431        C432   1.343       .  D
C432        H440   1.083       .  S
C433        H441   1.085       .  S
C433        C434   1.344       .  D
C434        H442   1.083       .  S
C443        C451   1.492       .  S
C443        C444   1.406       .  A
C443        C448   1.404       .  A
C444        C445   1.407       .  A
C444        H453   1.083       .  S
C445        C446   1.410       .  A
C445        H454   1.081       .  S
C446        C449   1.496       .  S
C446        C447   1.406       .  A
C447        C448   1.398       .  A
C447        H455   1.083       .  S
C448        H456   1.083       .  S
C449        H457   1.087       .  S
C449        C450   1.352       .  D
C450        H458   1.083       .  S
C451        H459   1.086       .  S
C451        C452   1.350       .  D
C452        H460   1.087       .  S
C461        C469   1.483       .  S
C461        C462   1.400       .  A
C461        C466   1.406       .  A
C462        C463   1.396       .  A
C462        H471   1.084       .  S
C463        C464   1.410       .  A
C463        H472   1.079       .  S
C464        C467   1.490       .  S
C464        C465   1.403       .  A
C465        C466   1.398       .  A
C465       H1545   1.083       .  S
C466        H474   1.082       .  S
C467        H475   1.086       .  S
C467        C468   1.347       .  D
C468        H476   1.082       .  S
C469        H477   1.085       .  S
C469        C470   1.346       .  D
C470        H478   1.086       .  S
H473       C1537   1.083       .  S
C479        C487   1.482       .  S
C479        C480   1.402       .  A
C479       C1556   1.404       .  A
C480        C481   1.400       .  A
C480        H489   1.083       .  S
C481        C482   1.409       .  A
C481        H490   1.080       .  S
C482        C485   1.488       .  S
C482        C483   1.405       .  A
C483       C1556   1.398       .  A
C483       H1563   1.082       .  S
C484       C1551   1.407       .  A
C484       C1555   1.398       .  A
C484        H492   1.081       .  S
C485        H493   1.090       .  S
C485        C486   1.347       .  D
C486        H494   1.086       .  S
C487        H495   1.084       .  S
C487       C1560   1.346       .  D
C488        H496   1.086       .  S
C488       C1559   1.346       .  D
H491       C1555   1.084       .  S
C497        C505   1.488       .  S
C497        C498   1.405       .  A
C497        C502   1.408       .  A
C498        C499   1.396       .  A
C498        H507   1.084       .  S
C499        C500   1.404       .  A
C499        H508   1.081       .  S
C500        C503   1.484       .  S
C500        C501   1.404       .  A
C501        C502   1.400       .  A
C501        H509   1.083       .  S
C502        H510   1.079       .  S
C503        H511   1.086       .  S
C503        C504   1.349       .  D
C504        H512   1.086       .  S
C505        H513   1.088       .  S
C505        C506   1.348       .  D
C506        H514   1.083       .  S
C515        C523   1.482       .  S
C515        C516   1.403       .  A
C515        C520   1.404       .  A
C516        C517   1.401       .  A
C516        H525   1.081       .  S
C517        C518   1.407       .  A
C517        H526   1.083       .  S
C518        C521   1.484       .  S
C518        C519   1.404       .  A
C519        C520   1.396       .  A
C519       H1599   1.079       .  S
C520       H1600   1.083       .  S
C521        H529   1.086       .  S
C521        C522   1.347       .  D
C522        H530   1.084       .  S
C523        H531   1.085       .  S
C523       C1596   1.345       .  D
C524        H532   1.086       .  S
C524       C1595   1.343       .  D
H527       C1591   1.083       .  S
H528       C1592   1.083       .  S
C533        C541   1.483       .  S
C533        C534   1.403       .  A
C533        C538   1.408       .  A
C534        C535   1.397       .  A
C534        H543   1.084       .  S
C535        C536   1.406       .  A
C535        H544   1.082       .  S
C536        C539   1.482       .  S
C536        C537   1.402       .  A
C537        C538   1.399       .  A
C537        H545   1.084       .  S
C538        H546   1.081       .  S
C539        H547   1.087       .  S
C539        C540   1.343       .  D
C540        H548   1.087       .  S
C541        H549   1.088       .  S
C541        C542   1.346       .  D
C542        H550   1.085       .  S
C551        C559   1.490       .  S
C551        C552   1.407       .  A
C551        C556   1.404       .  A
C552        C553   1.406       .  A
C552        H561   1.083       .  S
C553        C554   1.408       .  A
C553        H562   1.081       .  S
C554        C557   1.491       .  S
C554        C555   1.405       .  A
C555        C556   1.395       .  A
C555        H563   1.083       .  S
C556        H564   1.083       .  S
C557        H565   1.087       .  S
C557        C558   1.352       .  D
C558        H566   1.084       .  S
C559        H567   1.085       .  S
C559        C560   1.350       .  D
C560        H568   1.086       .  S
C569        C577   1.482       .  S
C569        C570   1.403       .  A
C569        C574   1.408       .  A
C570        C571   1.398       .  A
C570        H579   1.082       .  S
C571        C572   1.406       .  A
C571       H1652   1.082       .  S
C572        C575   1.476       .  S
C572        C573   1.401       .  A
C573        C574   1.393       .  A
C573        H581   1.084       .  S
C574        H582   1.081   1_556  S
C575        H583   1.088       .  S
C575        C576   1.344       .  D
C576       C1315   1.470       .  S
C576       H1656   1.085       .  S
C577        H585   1.086       .  S
C577        C578   1.343       .  D
C578        H586   1.086   1_556  S
H580       C1643   1.082       .  S
H584       C1648   1.086       .  S
C587        C595   1.489       .  S
C587        C588   1.404       .  A
C587        C592   1.408   1_554  A
C588        C589   1.397       .  A
C588        H597   1.083       .  S
C589        C590   1.407       .  A
C589        H598   1.083       .  S
C590        C593   1.490       .  S
C590        C591   1.405   1_554  A
C591        C592   1.402       .  A
C591        H599   1.083       .  S
C592        H600   1.081       .  S
C593        H601   1.086       .  S
C593        C594   1.345       .  D
C594        H602   1.085       .  S
C595        H603   1.087       .  S
C595        C596   1.347   1_554  D
C596        H604   1.084       .  S
C605        C613   1.487       .  S
C605        C606   1.401       .  A
C605        C610   1.407       .  A
C606        C607   1.402       .  A
C606        H615   1.085       .  S
C607        C608   1.410       .  A
C607        H616   1.080       .  S
C608        C611   1.488       .  S
C608        C609   1.402       .  A
C609        C610   1.394       .  A
C609        H617   1.083       .  S
C610        H618   1.084       .  S
C611        H619   1.086       .  S
C611        C612   1.347       .  D
C612        H620   1.085       .  S
C613        H621   1.086       .  S
C613        C614   1.346       .  D
C614        H622   1.087       .  S
C623        C631   1.480       .  S
C623        C624   1.402       .  A
C623        C628   1.405       .  A
C624        C625   1.396       .  A
C624        H633   1.084       .  S
C625        C626   1.409       .  A
C625        H634   1.079       .  S
C626        C629   1.489       .  S
C626        C627   1.405       .  A
C627        C628   1.398       .  A
C627        H635   1.084       .  S
C628        H636   1.081       .  S
C629        H637   1.085       .  S
C629        C630   1.347       .  D
C630        H638   1.083       .  S
C631        H639   1.087       .  S
C631        C632   1.346       .  D
C632        H640   1.083       .  S
C641        C649   1.486       .  S
C641        C642   1.404       .  A
C641        C646   1.406   1_554  A
C642        C643   1.400       .  A
C642        H651   1.084       .  S
C643        C644   1.409       .  A
C643        H652   1.081       .  S
C644        C647   1.489       .  S
C644        C645   1.404   1_554  A
C645        C646   1.398       .  A
C645        H653   1.083       .  S
C646       H1726   1.081       .  S
C647        H655   1.087   1_554  S
C647        C648   1.347       .  D
C648        H656   1.085       .  S
C649        H657   1.087       .  S
C649        C650   1.346   1_554  D
C650       H1730   1.084       .  S
H654       C1718   1.082       .  S
H658       C1722   1.085       .  S
C659        C667   1.483       .  S
C659        C660   1.404       .  A
C659        C664   1.406       .  A
C660        C661   1.397       .  A
C660        H669   1.083       .  S
C661        C662   1.405       .  A
C661        H670   1.082       .  S
C662        C665   1.481       .  S
C662        C663   1.403       .  A
C663        C664   1.396       .  A
C663        H671   1.084       .  S
C664        H672   1.082       .  S
C665        H673   1.084       .  S
C665        C666   1.350       .  D
C666        H674   1.085       .  S
C667        H675   1.084       .  S
C667        C668   1.349       .  D
C668        H676   1.083       .  S
C677        C685   1.490       .  S
C677        C678   1.402       .  A
C677        C682   1.410       .  A
C678        C679   1.397       .  A
C678        H687   1.083       .  S
C679        C680   1.409       .  A
C679        H688   1.082       .  S
C680        C683   1.494       .  S
C680        C681   1.404       .  A
C681        C682   1.403       .  A
C681        H689   1.082       .  S
C682        H690   1.081       .  S
C683        H691   1.086       .  S
C683        C684   1.345       .  D
C684        H692   1.085       .  S
C685        H693   1.086       .  S
C685        C686   1.345       .  D
C686        H694   1.085       .  S
C695        C703   1.476       .  S
C695        C696   1.400       .  A
C695        C700   1.406       .  A
C696        C697   1.391       .  A
C696        H705   1.083       .  S
C697        C698   1.407       .  A
C697        H706   1.081       .  S
C698        C701   1.482       .  S
C698        C699   1.405       .  A
C699        C700   1.400       .  A
C699        H707   1.083       .  S
C700        H708   1.082       .  S
C701        H709   1.084       .  S
C701        C702   1.346       .  D
C702        H710   1.085       .  S
C703        H711   1.088       .  S
C703        C704   1.343       .  D
C704        H712   1.085       .  S
C713        C721   1.492       .  S
C713        C714   1.406       .  A
C713        C718   1.409       .  A
C714        C715   1.401       .  A
C714        H723   1.084       .  S
C715        C716   1.405       .  A
C715        H724   1.083       .  S
C716        C719   1.483       .  S
C716        C717   1.403       .  A
C717        C718   1.400       .  A
C717        H725   1.084       .  S
C718        H726   1.081       .  S
C719        H727   1.087       .  S
C719        C720   1.347       .  D
C720        H728   1.086       .  S
C721        H729   1.086       .  S
C721        C722   1.349       .  D
C722        H730   1.085       .  S
C731        C739   1.483       .  S
C731        C732   1.402       .  A
C731        C736   1.405       .  A
C732        C733   1.400       .  A
C732        H741   1.083       .  S
C733        C734   1.408       .  A
C733        H742   1.081       .  S
C734        C737   1.488       .  S
C734        C735   1.406       .  A
C735        C736   1.398       .  A
C735        H743   1.083       .  S
C736        H744   1.083       .  S
C737        H745   1.087       .  S
C737        C738   1.349       .  D
C738        H746   1.083       .  S
C739        H747   1.087       .  S
C739        C740   1.343       .  D
C740        H748   1.087       .  S
C749        C757   1.487       .  S
C749        C750   1.405       .  A
C749        C754   1.404       .  A
C750        C751   1.406       .  A
C750        H759   1.083       .  S
C751        C752   1.410       .  A
C751        H760   1.081       .  S
C752        C755   1.488       .  S
C752        C753   1.402       .  A
C753        C754   1.393       .  A
C753        H761   1.084       .  S
C754        H762   1.082       .  S
C755        H763   1.088       .  S
C755        C756   1.347       .  D
C756        H764   1.085       .  S
C757        H765   1.086       .  S
C757        C758   1.348       .  D
C758        H766   1.087       .  S
C767        C775   1.473       .  S
C767        C768   1.399       .  A
C767        C772   1.406       .  A
C768        C769   1.392       .  A
C768        H777   1.085       .  S
C769        C770   1.408       .  A
C769        H778   1.081       .  S
C770        C773   1.485       .  S
C770        C771   1.404       .  A
C771        C772   1.399       .  A
C771        H779   1.084       .  S
C772        H780   1.082       .  S
C773        H781   1.085       .  S
C773        C774   1.345       .  D
C774        H782   1.085       .  S
C775        H783   1.089       .  S
C775        C776   1.342       .  D
C776        H784   1.086       .  S
C785        C793   1.488       .  S
C785        C786   1.401   1_655  A
C785        C790   1.409       .  A
C786        C787   1.398       .  A
C786        H795   1.084       .  S
C787        C788   1.410   1_455  A
C787        H796   1.082       .  S
C788        C791   1.487       .  S
C788        C789   1.400       .  A
C789        C790   1.396       .  A
C789        H797   1.083       .  S
C790        H798   1.082       .  S
C791        H799   1.086       .  S
C791        C792   1.344   1_655  D
C792        H800   1.084       .  S
C793        H801   1.084   1_655  S
C793        C794   1.345       .  D
C794        H802   1.084       .  S
C803        C811   1.482       .  S
C803        C804   1.402       .  A
C803        C808   1.406       .  A
C804        C805   1.397       .  A
C804        H813   1.084       .  S
C805        C806   1.407       .  A
C805        H814   1.082       .  S
C806        C809   1.486       .  S
C806        C807   1.404       .  A
C807        C808   1.399       .  A
C807        H815   1.084       .  S
C808        H816   1.083       .  S
C809        H817   1.087       .  S
C809        C810   1.345       .  D
C810        H818   1.086       .  S
C811        H819   1.087       .  S
C811        C812   1.345       .  D
C812        H820   1.085       .  S
C821        C829   1.491       .  S
C821        C822   1.404       .  A
C821        C826   1.411       .  A
C822        C823   1.394       .  A
C822        H831   1.084       .  S
C823        C824   1.403       .  A
C823        H832   1.083       .  S
C824        C827   1.488       .  S
C824        C825   1.405       .  A
C825        C826   1.407       .  A
C825        H833   1.084       .  S
C826        H834   1.081       .  S
C827        H835   1.086       .  S
C827        C828   1.348       .  D
C828        H836   1.088       .  S
C829        H837   1.088       .  S
C829        C830   1.349       .  D
C830        H838   1.084       .  S
C839        C847   1.489       .  S
C839        C840   1.401       .  A
C839        C844   1.411   1_455  A
C840        C841   1.395       .  A
C840        H849   1.083       .  S
C841        C842   1.407       .  A
C841        H850   1.083       .  S
C842        C845   1.485       .  S
C842        C843   1.401   1_455  A
C843        C844   1.399       .  A
C843        H851   1.083       .  S
C844        H852   1.080       .  S
C845        H853   1.085   1_455  S
C845        C846   1.345       .  D
C846        H854   1.084       .  S
C847        H855   1.085       .  S
C847        C848   1.345       .  D
C848        H856   1.081   1_455  S
C857        C865   1.479       .  S
C857        C858   1.404       .  A
C857        C862   1.406       .  A
C858        C859   1.392       .  A
C858        H867   1.083       .  S
C859        C860   1.402       .  A
C859        H868   1.083       .  S
C860        C863   1.474       .  S
C860        C861   1.402       .  A
C861        C862   1.400       .  A
C861        H869   1.083       .  S
C862        H870   1.081       .  S
C863        H871   1.085       .  S
C863        C864   1.345       .  D
C864        H872   1.088       .  S
C865        H873   1.088       .  S
C865        C866   1.347       .  D
C866        H874   1.084       .  S
C875        C883   1.486       .  S
C875        C876   1.401       .  A
C875        C880   1.409       .  A
C876        C877   1.393       .  A
C876        H885   1.084       .  S
C877        C878   1.408       .  A
C877        H886   1.082       .  S
C878        C881   1.491       .  S
C878        C879   1.405       .  A
C879        C880   1.404       .  A
C879        H887   1.084       .  S
C880        H888   1.081       .  S
C881        H889   1.085       .  S
C881        C882   1.348       .  D
C882        H890   1.085       .  S
C883        H891   1.087       .  S
C883        C884   1.346       .  D
C884        H892   1.084       .  S
C893        C901   1.486       .  S
C893        C894   1.404       .  A
C893        C898   1.406       .  A
C894        C895   1.401       .  A
C894        H903   1.083       .  S
C895        C896   1.409       .  A
C895        H904   1.081       .  S
C896        C899   1.487       .  S
C896        C897   1.404       .  A
C897        C898   1.396       .  A
C897        H905   1.083       .  S
C898        H906   1.082       .  S
C899        H907   1.087       .  S
C899        C900   1.348       .  D
C900        H908   1.084       .  S
C901        H909   1.085       .  S
C901        C902   1.349       .  D
C902        H910   1.086       .  S
C911        C919   1.488       .  S
C911        C912   1.404       .  A
C911        C916   1.407       .  A
C912        C913   1.404       .  A
C912        H921   1.083       .  S
C913        C914   1.409       .  A
C913        H922   1.081       .  S
C914        C917   1.485       .  S
C914        C915   1.401       .  A
C915        C916   1.394       .  A
C915        H923   1.084       .  S
C916        H924   1.082       .  S
C917        H925   1.087       .  S
C917        C918   1.346       .  D
C918        H926   1.086       .  S
C919        H927   1.087       .  S
C919        C920   1.343       .  D
C920        H928   1.087       .  S
C929        C937   1.485       .  S
C929        C930   1.403       .  A
C929        C934   1.406       .  A
C930        C931   1.399       .  A
C930        H939   1.084       .  S
C931        C932   1.408       .  A
C931        H940   1.080       .  S
C932        C935   1.488       .  S
C932        C933   1.405       .  A
C933        C934   1.395       .  A
C933        H941   1.084       .  S
C934        H942   1.082       .  S
C935        H943   1.087       .  S
C935        C936   1.348       .  D
C936        H944   1.082       .  S
C937        H945   1.085       .  S
C937        C938   1.348       .  D
C938        H946   1.085       .  S
C947        C955   1.479       .  S
C947        C948   1.402       .  A
C947        C952   1.402       .  A
C948        C949   1.401       .  A
C948        H957   1.083       .  S
C949        C950   1.409       .  A
C949        H958   1.080       .  S
C950        C953   1.483       .  S
C950        C951   1.404       .  A
C951        C952   1.393       .  A
C951        H959   1.084       .  S
C952        H960   1.083       .  S
C953        H961   1.088       .  S
C953        C954   1.347       .  D
C954        H962   1.084       .  S
C955        H963   1.087       .  S
C955        C956   1.345       .  D
C956        H964   1.087       .  S
C965        C973   1.485       .  S
C965        C966   1.402       .  A
C965       C2042   1.408       .  A
C966        C967   1.397       .  A
C966        H975   1.083       .  S
C967       C2040   1.408       .  A
C967        H976   1.081       .  S
C968        C971   1.489       .  S
C968        C969   1.402       .  A
C968       C2039   1.409       .  A
C969        C970   1.398       .  A
C969        H977   1.084       .  S
C970       C2037   1.409       .  A
C970        H978   1.082       .  S
C971        H979   1.085       .  S
C971       C2044   1.348       .  D
C972       C1095   1.485       .  S
C972        H980   1.085       .  S
C972       C2043   1.346       .  D
C973        H981   1.085       .  S
C973        C974   1.346       .  D
C974       H2054   1.085       .  S
H982       C2046   1.085       .  S
C983        C991   1.488       .  S
C983        C984   1.403       .  A
C983        C988   1.407       .  A
C984        C985   1.403       .  A
C984        H993   1.083       .  S
C985        C986   1.409       .  A
C985        H994   1.082       .  S
C986        C989   1.484       .  S
C986        C987   1.401       .  A
C987        C988   1.394       .  A
C987        H995   1.083       .  S
C988        H996   1.083       .  S
C989       H2069   1.087       .  S
C989        C990   1.344       .  D
C990        H998   1.085       .  S
C991        H999   1.086       .  S
C991        C992   1.344       .  D
C992       H1000   1.086       .  S
H997       C2061   1.087       .  S
C1001      C1009   1.485       .  S
C1001      C1002   1.400       .  A
C1001      C1006   1.408       .  A
C1002      C1003   1.395   1_655  A
C1002      H1011   1.083       .  S
C1003      C1004   1.409       .  A
C1003      H1012   1.080       .  S
C1004      C1007   1.488       .  S
C1004      C1005   1.402       .  A
C1005      C1006   1.400   1_455  A
C1005      H1013   1.083       .  S
C1006      H1014   1.080       .  S
C1007      H1015   1.086       .  S
C1007      C1008   1.346       .  D
C1008      H1016   1.084       .  S
C1009      H1017   1.083       .  S
C1009      C1010   1.347       .  D
C1010      H1018   1.084       .  S
C1019      C1027   1.493       .  S
C1019      C1020   1.406       .  A
C1019      C1024   1.410       .  A
C1020      C1021   1.400       .  A
C1020      H1029   1.084       .  S
C1021      C1022   1.402       .  A
C1021      H1030   1.084       .  S
C1022      C1025   1.486       .  S
C1022      C1023   1.406       .  A
C1023      C1024   1.398       .  A
C1023      H1031   1.083       .  S
C1024      H1032   1.080       .  S
C1025      H1033   1.087       .  S
C1025      C1026   1.344       .  D
C1026      H1034   1.086       .  S
C1027      H1035   1.085       .  S
C1027      C1028   1.350       .  D
C1028      H1036   1.083       .  S
C1037      C1045   1.489       .  S
C1037      C1038   1.406       .  A
C1037      C1042   1.406       .  A
C1038      C1039   1.402       .  A
C1038      H1047   1.082       .  S
C1039      C1040   1.407       .  A
C1039      H1048   1.081       .  S
C1040      C1043   1.487       .  S
C1040      C1041   1.404       .  A
C1041      C1042   1.394       .  A
C1041      H1049   1.083       .  S
C1042      H1050   1.081       .  S
C1043      H1051   1.087       .  S
C1043      C1044   1.348       .  D
C1044      H1052   1.083       .  S
C1045      H2125   1.085       .  S
C1045      C1046   1.349       .  D
C1046      H1054   1.084       .  S
H1053      C2117   1.085       .  S
C1055      C1063   1.482       .  S
C1055      C1056   1.402       .  A
C1055      C1060   1.408       .  A
C1056      C1057   1.392       .  A
C1056      H1065   1.083       .  S
C1057      C1058   1.405       .  A
C1057      H1066   1.083       .  S
C1058      C1061   1.485       .  S
C1058      C1059   1.405       .  A
C1059      C1060   1.404       .  A
C1059      H1067   1.083       .  S
C1060      H1068   1.082       .  S
C1061      H1069   1.086       .  S
C1061      C1062   1.345       .  D
C1062      H1070   1.086       .  S
C1063      H1071   1.088       .  S
C1063      C1064   1.346       .  D
C1064      H1072   1.085       .  S
In1073     O1075   2.245       .  S
In1073     O1076   2.247       .  S
In1073     O1084   2.212       .  S
In1073     O1078   2.259       .  S
In1073     O1080   2.231       .  S
In1073     O1081   2.275       .  S
In1073     O1082   2.230       .  S
In1073     O1085   2.221       .  S
C1074      O1080   1.262       .  A
C1074      O1082   1.263       .  A
C1074      C1290   1.459       .  S
O1075      C1083   1.260       .  A
O1076      C1083   1.263       .  A
C1077      O1084   1.260       .  A
C1077      O1078   1.263       .  A
C1077      C2136   1.473       .  S
C1079      O1081   1.265       .  A
C1079      O1085   1.258       .  A
C1079      C2116   1.480       .  S
C1083      C1193   1.464       .  S
C1086      C2080   1.483       .  S
C1086      C1087   1.409       .  A
C1086      C1091   1.398       .  A
C1087      C1088   1.407       .  A
C1087      H1092   1.082       .  S
C1088      C2100   1.489       .  S
C1088      C1089   1.410       .  A
C1089      C1090   1.405       .  A
C1089      H1093   1.081       .  S
C1090      C2134   1.478       .  S
C1090      C1091   1.398       .  A
C1091      H1094   1.085       .  S
C1096      C1097   1.405       .  A
C1096      H1101   1.081       .  S
C1097      C2062   1.489       .  S
C1097      C1098   1.408       .  A
C1098      C1099   1.403       .  A
C1098      H1102   1.083       .  S
C1099      C2118   1.490       .  S
C1099      C1100   1.405       .  A
In1104     O1106   2.204       .  S
In1104     O1107   2.284       .  S
In1104     O1115   2.209       .  S
In1104     O1109   2.261       .  S
In1104     O1111   2.253       .  S
In1104     O1112   2.253       .  S
In1104     O1113   2.223   1_565  S
In1104     O1116   2.234   1_565  S
C1105      O1111   1.267   1_545  A
C1105      O1113   1.262       .  A
C1105      C1325   1.465       .  S
O1106      C1114   1.258       .  A
O1107      C1114   1.269       .  A
C1108      O1115   1.261       .  A
C1108      O1109   1.270       .  A
C1108      C2098   1.472       .  S
C1110      O1112   1.267       .  A
C1110      O1116   1.263   1_565  A
C1110      C1229   1.470   1_565  S
C1114      C2064   1.472       .  S
C1117      C2082   1.484       .  S
C1117      C1118   1.404       .  A
C1117      C1122   1.408       .  A
C1118      C1119   1.405       .  A
C1118      H1123   1.082       .  S
C1119      C2010   1.491       .  S
C1119      C1120   1.406       .  A
C1120      C1121   1.405       .  A
C1120      H1124   1.084       .  S
C1121      C2028   1.488       .  S
C1121      C1122   1.405       .  A
C1122      H1125   1.081       .  S
In1126     O1128   2.208       .  S
In1126     O1129   2.269       .  S
In1126     O1137   2.217       .  S
In1126     O1131   2.263       .  S
In1126     O1133   2.244       .  S
In1126     O1134   2.236       .  S
In1126     O1135   2.225       .  S
In1126     O1138   2.220       .  S
C1127      O1133   1.266       .  A
C1127      O1135   1.262       .  A
C1127      C1264   1.462       .  S
O1128      C1136   1.259       .  A
O1129      C1136   1.268       .  A
C1130      O1137   1.261       .  A
C1130      O1131   1.268       .  A
C1130      C2026   1.479       .  S
C1132      O1134   1.268       .  A
C1132      O1138   1.264       .  A
C1132      C1176   1.461       .  S
C1136      C1992   1.471       .  S
C1139      C2046   1.488       .  S
C1139      C1140   1.410       .  A
C1139      C1144   1.402       .  A
C1140      C1141   1.408       .  A
C1140      H1145   1.082       .  S
C1141      C1990   1.491       .  S
C1141      C1142   1.410       .  A
C1142      C1143   1.402       .  A
C1142      H1146   1.083       .  S
C1143      C1974   1.487       .  S
C1143      C1144   1.404       .  A
C1144      H1147   1.083       .  S
In1148     O1150   2.245   1_565  S
In1148     O1151   2.232       .  S
In1148     O1159   2.218       .  S
In1148     O1153   2.274       .  S
In1148     O1155   2.256       .  S
In1148     O1156   2.272       .  S
In1148     O1157   2.240   1_565  S
In1148     O1160   2.233       .  S
C1149      O1155   1.262   1_545  A
C1149      O1157   1.260       .  A
C1149      C1246   1.464       .  S
O1150      C1158   1.264       .  A
O1151      C1158   1.263   1_565  A
C1152      O1159   1.256       .  A
C1152      O1153   1.264       .  A
C1152      C1972   1.466       .  S
C1154      O1156   1.261       .  A
C1154      O1160   1.258       .  A
C1154      C2008   1.479       .  S
C1158      C1312   1.463       .  S
C1161      C1918   1.479       .  S
C1161      C1162   1.399       .  A
C1161      C1166   1.412       .  A
C1162      C1163   1.398       .  A
C1162      H1167   1.084       .  S
C1163      C1936   1.478       .  S
C1163      C1164   1.400       .  A
C1164      C1165   1.403       .  A
C1164      H1168   1.084       .  S
C1165      C1954   1.488   1_455  S
C1165      C1166   1.412       .  A
C1166      H1169   1.082   1_455  S
In1170     O1172   2.232       .  S
In1170     O1173   2.262       .  S
In1170     O1181   2.218       .  S
In1170     O1175   2.271       .  S
In1170     O1177   2.249       .  S
In1170     O1178   2.236       .  S
In1170     O1179   2.234       .  S
In1170     O1182   2.238       .  S
C1171      O1177   1.263       .  A
C1171      O1179   1.261       .  A
C1171      C1413   1.464       .  S
O1172      C1180   1.259       .  A
O1173      C1180   1.263       .  A
C1174      O1181   1.260       .  A
C1174      O1175   1.266       .  A
C1174      C1902   1.480       .  S
C1176      O1178   1.263       .  A
C1176      O1182   1.262       .  A
C1180      C1956   1.478       .  S
C1183      C1864   1.479       .  S
C1183      C1184   1.410   1_455  A
C1183      C1188   1.400       .  A
C1184      C1185   1.407       .  A
C1184      H1189   1.081       .  S
C1185      C1900   1.482       .  S
C1185      C1186   1.404       .  A
C1186      C1187   1.402   1_655  A
C1186      H1190   1.084       .  S
C1187      C1882   1.476       .  S
C1187      C1188   1.396       .  A
C1188      H1191   1.084       .  S
In1192     O1194   2.224       .  S
In1192     O1195   2.234       .  S
In1192     O1203   2.203       .  S
In1192     O1197   2.269       .  S
In1192     O1199   2.244       .  S
In1192     O1200   2.249       .  S
In1192     O1201   2.231       .  S
In1192     O1204   2.232       .  S
C1193      O1199   1.265       .  A
C1193      O1201   1.261       .  A
O1194      C1202   1.263       .  A
O1195      C1202   1.265       .  A
C1196      O1203   1.260       .  A
C1196      O1197   1.267       .  A
C1196      C1938   1.476       .  S
C1198      O1200   1.264       .  A
C1198      O1204   1.261       .  A
C1198      C1884   1.473       .  S
C1202      C1338   1.458       .  S
C1205      C1866   1.477       .  S
C1205      C1206   1.399       .  A
C1205      C1210   1.409   1_655  A
C1206      C1207   1.395       .  A
C1206      H1211   1.086       .  S
C1207      C1846   1.482       .  S
C1207      C1208   1.404       .  A
C1208      C1209   1.405   1_655  A
C1208      H1212   1.083       .  S
C1209      C1830   1.483       .  S
C1209      C1210   1.408       .  A
C1210      H1213   1.081       .  S
C1214      C1920   1.485       .  S
C1214      C1215   1.401   1_455  A
C1214      C1219   1.407       .  A
C1215      C1216   1.399       .  A
C1215      H1220   1.085       .  S
C1216      C1812   1.484       .  S
C1216      C1217   1.407   1_655  A
C1217      C1218   1.413       .  A
C1217      H1221   1.081       .  S
C1218      C1794   1.491       .  S
C1218      C1219   1.406       .  A
C1219      H1222   1.082       .  S
In1223     O1225   2.240       .  S
In1223     O1226   2.264       .  S
In1223     O1234   2.219       .  S
In1223     O1228   2.271   1_545  S
In1223     O1230   2.242       .  S
In1223     O1231   2.249       .  S
In1223     O1232   2.228       .  S
In1223     O1235   2.253       .  S
C1224      O1230   1.265       .  A
C1224      O1232   1.262       .  A
C1224      C1360   1.462       .  S
O1225      C1233   1.260       .  A
O1226      C1233   1.264       .  A
C1227      O1234   1.258   1_565  A
C1227      O1228   1.264       .  A
C1227      C1828   1.477       .  S
C1229      O1231   1.263       .  A
C1229      O1235   1.262       .  A
C1233      C1792   1.478       .  S
In1236     O1238   2.242       .  S
In1236     O1239   2.239       .  S
In1236     O1247   2.214       .  S
In1236     O1241   2.263       .  S
In1236     O1243   2.242       .  S
In1236     O1244   2.264       .  S
In1236     O1245   2.235       .  S
In1236     O1248   2.242       .  S
C1237      O1243   1.263       .  A
C1237      O1245   1.262       .  A
C1237      C1391   1.461       .  S
O1238      C1246   1.262       .  A
O1239      C1246   1.264       .  A
C1240      O1247   1.259       .  A
C1240      O1241   1.264       .  A
C1240      C1848   1.472   1_545  S
C1242      O1244   1.263       .  A
C1242      O1248   1.260       .  A
C1242      C1810   1.480       .  S
C1249      C1738   1.488       .  S
C1249      C1250   1.407       .  A
C1249      C1254   1.405       .  A
C1250      C1251   1.411       .  A
C1250      H1255   1.082       .  S
C1251      C1758   1.488       .  S
C1251      C1252   1.403       .  A
C1252      C1253   1.405       .  A
C1252      H1256   1.082       .  S
C1253      C1774   1.483       .  S
C1253      C1254   1.399       .  A
C1254      H1257   1.082       .  S
In1258     O1261   2.252       .  S
In1258     O1269   2.213       .  S
In1258     O1263   2.283       .  S
In1258     O1266   2.233       .  S
In1258     O1270   2.242       .  S
C1259      O1265   1.267       .  A
C1259      O1267   1.262       .  A
C1259      C1418   1.472       .  S
O1260      C1268   1.260       .  A
C1262      O1269   1.255       .  A
C1262      O1263   1.267       .  A
C1262      C1756   1.472       .  S
C1264      O1266   1.263       .  A
C1264      O1270   1.263       .  A
C1268      C1722   1.474       .  S
C1271      C1684   1.486       .  S
C1271      C1272   1.407       .  A
C1271      C1276   1.405       .  A
C1272      C1273   1.400       .  A
C1272      H1277   1.082       .  S
C1273      C1720   1.482       .  S
C1273      C1274   1.405       .  A
C1274      C1275   1.403       .  A
C1274      H1278   1.084       .  S
C1275      C1702   1.486       .  S
C1275      C1276   1.408       .  A
C1276      H1279   1.082       .  S
In1280     O1285   2.262       .  S
In1280     O1287   2.229       .  S
In1280     O1289   2.233       .  S
In1280     O1292   2.237       .  S
C1281      O1287   1.262       .  A
C1281      O1289   1.261       .  A
C1281      C1347   1.456       .  S
O1282      C1290   1.263   1_554  A
O1283      C1290   1.261       .  A
C1284      O1291   1.258       .  A
C1284      C1776   1.471       .  S
C1286      O1292   1.259       .  A
C1286      C1704   1.475       .  S
C1293      C1686   1.487       .  S
C1293      C1294   1.403       .  A
C1293      C1298   1.412       .  A
C1294      C1295   1.397       .  A
C1294      H1299   1.084       .  S
C1295      C1650   1.485       .  S
C1295      C1296   1.404       .  A
C1296      C1297   1.405       .  A
C1296      H1300   1.083       .  S
C1297      C1666   1.487       .  S
C1297      C1298   1.412       .  A
C1298      H1301   1.080       .  S
C1302      C1740   1.487       .  S
C1302      C1303   1.406       .  A
C1302      C1307   1.407       .  A
C1303      C1304   1.408       .  A
C1303      H1308   1.082       .  S
C1304      C1632   1.490       .  S
C1304      C1305   1.407       .  A
C1305      C1306   1.407       .  A
C1305      H1309   1.083       .  S
C1306      C1612   1.488       .  S
C1306      C1307   1.400       .  A
C1307      H1310   1.081       .  S
In1311     O1313   2.244       .  S
In1311     O1316   2.265       .  S
In1311     O1318   2.244       .  S
In1311     O1319   2.262   1_545  S
In1311     O1320   2.235       .  S
In1311     O1323   2.242       .  S
C1312      O1318   1.262       .  A
C1312      O1320   1.262       .  A
O1314      C1321   1.263       .  A
C1315      O1316   1.263       .  A
C1317      O1319   1.263       .  A
C1317      O1323   1.260   1_565  A
C1317      C1614   1.477       .  S
C1321      C1400   1.463       .  S
In1324     O1326   2.220       .  S
In1324     O1327   2.282   1_546  S
In1324     O1329   2.258       .  S
In1324     O1331   2.232       .  S
In1324     O1333   2.247       .  S
C1325      O1331   1.264       .  A
C1325      O1333   1.263       .  A
O1326      C1334   1.259   1_545  A
O1327      C1334   1.268   1_554  A
C1328      O1335   1.261       .  A
C1328      C1668   1.482       .  S
C1330      O1332   1.265       .  A
C1330      O1336   1.261       .  A
C1330      C1365   1.470       .  S
C1334      C1630   1.485       .  S
In1337     O1339   2.225       .  S
In1337     O1340   2.239       .  S
In1337     O1348   2.217       .  S
In1337     O1342   2.262       .  S
In1337     O1344   2.234       .  S
In1337     O1345   2.271       .  S
In1337     O1346   2.232       .  S
In1337     O1349   2.223       .  S
C1338      O1344   1.263       .  A
C1338      O1346   1.262       .  A
O1339      C1347   1.261       .  A
O1340      C1347   1.263       .  A
C1341      O1348   1.259       .  A
C1341      O1342   1.264       .  A
C1341      C1594   1.475       .  S
C1343      O1345   1.265       .  A
C1343      O1349   1.260       .  A
C1343      C1578   1.481       .  S
C1350      C1542   1.487       .  S
C1350      C1351   1.401       .  A
C1350      C1355   1.409       .  A
C1351      C1352   1.401       .  A
C1351      H1356   1.086       .  S
C1352      C1596   1.483       .  S
C1352      C1353   1.406       .  A
C1353      C1354   1.406       .  A
C1353      H1357   1.084       .  S
C1354      C1560   1.483       .  S
C1354      C1355   1.405       .  A
C1355      H1358   1.079       .  S
In1359     O1361   2.236       .  S
In1359     O1362   2.275       .  S
In1359     O1370   2.219       .  S
In1359     O1364   2.261       .  S
In1359     O1366   2.238       .  S
In1359     O1367   2.248       .  S
In1359     O1368   2.235       .  S
In1359     O1371   2.242       .  S
C1360      O1366   1.264       .  A
C1360      O1368   1.262       .  A
O1361      C1369   1.260       .  A
O1362      C1369   1.266       .  A
C1363      O1370   1.261       .  A
C1363      O1364   1.265       .  A
C1363      C1558   1.475       .  S
C1365      O1367   1.266       .  A
C1365      O1371   1.262       .  A
C1369      C1522   1.485       .  S
C1372      C1506   1.488       .  S
C1372      C1373   1.404       .  A
C1372      C1377   1.413       .  A
C1373      C1374   1.402       .  A
C1373      H1378   1.083       .  S
C1374      C1576   1.489       .  S
C1374      C1375   1.404       .  A
C1375      C1376   1.406       .  A
C1375      H1379   1.084       .  S
C1376      C1524   1.492       .  S
C1376      C1377   1.409       .  A
C1377      H1380   1.080       .  S
C1381      C1504   1.487       .  S
C1381      C1382   1.403       .  A
C1381      C1386   1.412       .  A
C1382      C1383   1.399       .  A
C1382      H1387   1.085       .  S
C1383      C1468   1.489       .  S
C1383      C1384   1.406       .  A
C1384      C1385   1.407       .  A
C1384      H1388   1.082       .  S
C1385      C1486   1.492       .  S
C1385      C1386   1.412       .  A
C1386      H1389   1.081       .  S
In1390     O1392   2.242       .  S
In1390     O1393   2.242       .  S
In1390     O1401   2.223       .  S
In1390     O1395   2.271       .  S
In1390     O1397   2.236       .  S
In1390     O1398   2.266       .  S
In1390     O1399   2.237       .  S
In1390     O1402   2.216       .  S
C1391      O1397   1.262       .  A
C1391      O1399   1.262       .  A
O1392      C1400   1.262       .  A
O1393      C1400   1.262       .  A
C1394      O1401   1.257       .  A
C1394      O1395   1.262       .  A
C1394      C1450   1.475       .  S
C1396      O1398   1.264       .  A
C1396      O1402   1.259       .  A
C1396      C1470   1.474       .  S
C1403      C1540   1.478       .  S
C1403      C1404   1.407       .  A
C1403      C1408   1.402       .  A
C1404      C1405   1.401       .  A
C1404      H1409   1.084       .  S
C1405      C1432   1.481       .  S
C1405      C1406   1.406       .  A
C1406      C1407   1.401       .  A
C1406      H1410   1.082       .  S
C1407      C1452   1.483       .  S
C1407      C1408   1.404       .  A
C1408      H1411   1.082       .  S
In1412     O1414   2.237       .  S
In1412     O1415   2.288       .  S
In1412     O1423   2.228       .  S
In1412     O1417   2.252       .  S
In1412     O1419   2.238       .  S
In1412     O1420   2.249       .  S
In1412     O1421   2.253       .  S
In1412     O1424   2.261       .  S
C1413      O1419   1.259       .  A
C1413      O1421   1.261       .  A
O1414      C1422   1.257       .  A
O1415      C1422   1.263       .  A
C1416      O1423   1.261       .  A
C1416      O1417   1.262       .  A
C1416      C1434   1.472       .  S
C1418      O1420   1.263       .  A
C1418      O1424   1.262       .  A
C1422      C1488   1.486       .  S
C1425      C1433   1.481       .  S
C1425      C1426   1.402       .  A
C1425      C1430   1.407       .  A
C1427      H1436   1.083       .  S
C1428      C1431   1.485       .  S
C1428      C1429   1.404       .  A
C1429      C1430   1.399       .  A
C1429      H1437   1.084       .  S
C1430      H1438   1.082       .  S
C1431      H1439   1.086       .  S
C1432      H1440   1.087       .  S
C1433      H1441   1.088       .  S
C1433      C1434   1.343       .  D
C1434      H1442   1.085       .  S
C1443      C1444   1.405       .  A
C1443      C1448   1.407       .  A
C1444      C1445   1.398       .  A
C1444      H1453   1.083       .  S
C1445      C1446   1.405       .  A
C1445      H1454   1.082       .  S
C1446      C1449   1.483       .  S
C1446      C1447   1.404       .  A
C1447      C1448   1.397       .  A
C1447      H1455   1.083       .  S
C1448      H1456   1.081       .  S
C1449      H1457   1.087       .  S
C1449      C1450   1.348       .  D
C1450      H1458   1.085       .  S
C1451      H1459   1.084       .  S
C1451      C1452   1.347       .  D
C1452      H1460   1.085       .  S
C1461      C1469   1.480       .  S
C1461      C1462   1.402       .  A
C1461      C1466   1.405       .  A
C1462      C1463   1.396       .  A
C1462      H1471   1.084       .  S
C1463      C1464   1.408       .  A
C1463      H1472   1.081       .  S
C1464      C1467   1.489       .  S
C1464      C1465   1.406       .  A
C1465      C1466   1.401       .  A
C1465      H1473   1.083       .  S
C1466      H1474   1.082       .  S
C1467      H1475   1.085       .  S
C1467      C1468   1.348       .  D
C1468      H1476   1.085       .  S
C1469      H1477   1.088       .  S
C1469      C1470   1.345       .  D
C1470      H1478   1.085       .  S
C1479      C1487   1.490       .  S
C1479      C1480   1.403       .  A
C1479      C1484   1.408       .  A
C1480      C1481   1.395       .  A
C1480      H1489   1.084       .  S
C1481      C1482   1.407       .  A
C1481      H1490   1.082       .  S
C1482      C1485   1.496       .  S
C1482      C1483   1.408       .  A
C1483      C1484   1.408       .  A
C1483      H1491   1.083       .  S
C1484      H1492   1.082       .  S
C1485      H1493   1.085       .  S
C1485      C1486   1.351       .  D
C1486      H1494   1.086       .  S
C1487      H1495   1.088       .  S
C1487      C1488   1.350       .  D
C1488      H1496   1.085       .  S
C1497      C1505   1.488       .  S
C1497      C1498   1.401       .  A
C1497      C1502   1.410       .  A
C1498      C1499   1.397   1_455  A
C1498      H1507   1.083       .  S
C1499      C1500   1.408       .  A
C1499      H1508   1.082       .  S
C1500      C1503   1.489       .  S
C1500      C1501   1.403       .  A
C1501      C1502   1.400   1_655  A
C1501      H1509   1.083       .  S
C1502      H1510   1.081       .  S
C1503      H1511   1.085       .  S
C1503      C1504   1.347       .  D
C1504      H1512   1.085       .  S
C1505      H1513   1.084       .  S
C1505      C1506   1.346       .  D
C1506      H1514   1.083       .  S
C1515      C1523   1.494       .  S
C1515      C1516   1.407       .  A
C1515      C1520   1.406       .  A
C1516      C1517   1.406       .  A
C1516      H1525   1.083       .  S
C1517      C1518   1.409       .  A
C1517      H1526   1.081       .  S
C1518      C1521   1.494       .  S
C1518      C1519   1.405       .  A
C1519      C1520   1.398       .  A
C1519      H1527   1.084       .  S
C1520      H1528   1.082       .  S
C1521      H1529   1.087       .  S
C1521      C1522   1.351       .  D
C1522      H1530   1.083       .  S
C1523      H1531   1.086       .  S
C1523      C1524   1.351       .  D
C1524      H1532   1.086       .  S
C1533      C1541   1.486       .  S
C1533      C1534   1.402       .  A
C1533      C1538   1.408       .  A
C1534      C1535   1.397   1_554  A
C1534      H1543   1.082       .  S
C1535      C1536   1.407   1_556  A
C1535      H1544   1.080       .  S
C1536      C1539   1.483       .  S
C1536      C1537   1.401   1_554  A
C1537      C1538   1.398   1_556  A
C1538      H1546   1.081       .  S
C1539      H1547   1.089   1_554  S
C1539      C1540   1.344       .  D
C1540      H1548   1.087       .  S
C1541      H1549   1.081       .  S
C1541      C1542   1.348       .  D
C1542      H1550   1.083       .  S
C1551      C1559   1.487       .  S
C1551      C1552   1.404       .  A
C1552      C1553   1.400       .  A
C1552      H1561   1.083       .  S
C1553      C1554   1.406       .  A
C1553      H1562   1.082       .  S
C1554      C1557   1.484       .  S
C1554      C1555   1.403       .  A
C1556      H1564   1.086       .  S
C1557      H1565   1.087       .  S
C1557      C1558   1.347       .  D
C1558      H1566   1.085       .  S
C1559      H1567   1.086       .  S
C1560      H1568   1.084       .  S
C1569      C1577   1.490       .  S
C1569      C1570   1.404       .  A
C1569      C1574   1.409       .  A
C1570      C1571   1.395       .  A
C1570      H1579   1.084       .  S
C1571      C1572   1.405       .  A
C1571      H1580   1.081       .  S
C1572      C1575   1.490       .  S
C1572      C1573   1.406       .  A
C1573      C1574   1.404       .  A
C1573      H1581   1.083       .  S
C1574      H1582   1.080       .  S
C1575      H1583   1.085       .  S
C1575      C1576   1.352       .  D
C1576      H1584   1.085       .  S
C1577      H1585   1.088       .  S
C1577      C1578   1.349       .  D
C1578      H1586   1.084       .  S
C1587      C1595   1.484       .  S
C1587      C1588   1.403       .  A
C1587      C1592   1.405       .  A
C1588      C1589   1.400       .  A
C1588      H1597   1.083       .  S
C1589      C1590   1.408       .  A
C1589      H1598   1.081       .  S
C1590      C1593   1.486       .  S
C1590      C1591   1.405       .  A
C1591      C1592   1.396       .  A
C1593      H1601   1.087       .  S
C1593      C1594   1.348       .  D
C1594      H1602   1.084       .  S
C1595      H1603   1.087       .  S
C1596      H1604   1.087       .  S
C1605      C1613   1.487       .  S
C1605      C1606   1.405       .  A
C1605      C1610   1.406       .  A
C1606      C1607   1.401       .  A
C1606      H1615   1.083       .  S
C1607      C1608   1.408       .  A
C1607      H1616   1.083       .  S
C1608      C1611   1.487       .  S
C1608      C1609   1.403       .  A
C1609      C1610   1.399       .  A
C1609      H1617   1.083       .  S
C1610      H1618   1.083       .  S
C1611      H1619   1.086       .  S
C1611      C1612   1.346       .  D
C1612      H1620   1.086       .  S
C1613      H1621   1.087       .  S
C1613      C1614   1.347       .  D
C1614      H1622   1.085       .  S
C1623      C1631   1.491       .  S
C1623      C1624   1.406       .  A
C1623      C1628   1.405       .  A
C1624      C1625   1.405       .  A
C1624      H1633   1.083       .  S
C1625      C1626   1.408       .  A
C1625      H1634   1.081       .  S
C1626      C1629   1.492       .  S
C1626      C1627   1.405       .  A
C1627      C1628   1.397       .  A
C1627      H1635   1.084       .  S
C1628      H1636   1.082       .  S
C1629      H1637   1.087       .  S
C1629      C1630   1.352       .  D
C1630      H1638   1.084   1_556  S
C1631      H1639   1.085       .  S
C1631      C1632   1.351       .  D
C1632      H1640   1.086       .  S
C1641      C1649   1.486       .  S
C1641      C1642   1.404       .  A
C1641      C1646   1.409       .  A
C1642      C1643   1.398       .  A
C1642      H1651   1.084       .  S
C1643      C1644   1.405       .  A
C1644      C1647   1.479       .  S
C1644      C1645   1.402       .  A
C1645      C1646   1.396       .  A
C1645      H1653   1.084       .  S
C1646      H1654   1.081       .  S
C1647      H1655   1.088       .  S
C1647      C1648   1.345       .  D
C1649      H1657   1.086       .  S
C1649      C1650   1.345       .  D
C1650      H1658   1.085       .  S
C1659      C1667   1.491       .  S
C1659      C1660   1.403       .  A
C1659      C1664   1.409       .  A
C1660      C1661   1.396       .  A
C1660      H1669   1.084       .  S
C1661      C1662   1.406       .  A
C1661      H1670   1.082       .  S
C1662      C1665   1.490       .  S
C1662      C1663   1.406       .  A
C1663      C1664   1.405       .  A
C1663      H1671   1.084       .  S
C1664      H1672   1.082       .  S
C1665      H1673   1.086       .  S
C1665      C1666   1.348       .  D
C1666      H1674   1.087       .  S
C1667      H1675   1.087       .  S
C1667      C1668   1.348       .  D
C1668      H1676   1.084       .  S
C1677      C1685   1.489       .  S
C1677      C1678   1.402       .  A
C1677      C1682   1.409       .  A
C1678      C1679   1.399       .  A
C1678      H1687   1.084       .  S
C1679      C1680   1.409       .  A
C1679      H1688   1.080       .  S
C1680      C1683   1.487       .  S
C1680      C1681   1.402       .  A
C1681      C1682   1.396       .  A
C1681      H1689   1.084       .  S
C1682      H1690   1.081       .  S
C1683      H1691   1.084       .  S
C1683      C1684   1.349       .  D
C1684      H1692   1.082       .  S
C1685      H1693   1.084       .  S
C1685      C1686   1.347       .  D
C1686      H1694   1.085       .  S
C1695      C1703   1.486       .  S
C1695      C1696   1.403       .  A
C1695      C1700   1.408       .  A
C1696      C1697   1.396       .  A
C1696      H1705   1.084       .  S
C1697      C1698   1.406       .  A
C1697      H1706   1.083       .  S
C1698      C1701   1.485       .  S
C1698      C1699   1.404       .  A
C1699      C1700   1.401       .  A
C1699      H1707   1.083       .  S
C1700      H1708   1.082       .  S
C1701      H1709   1.085       .  S
C1701      C1702   1.347       .  D
C1702      H1710   1.086       .  S
C1703      H1711   1.087       .  S
C1703      C1704   1.347       .  D
C1704      H1712   1.084       .  S
C1713      C1721   1.483       .  S
C1713      C1714   1.403       .  A
C1713      C1718   1.406       .  A
C1714      C1715   1.397       .  A
C1714      H1723   1.084       .  S
C1715      C1716   1.408       .  A
C1715      H1724   1.081       .  S
C1716      C1719   1.485       .  S
C1716      C1717   1.403       .  A
C1717      C1718   1.398       .  A
C1717      H1725   1.084       .  S
C1719      H1727   1.087       .  S
C1719      C1720   1.345       .  D
C1720      H1728   1.086       .  S
C1721      H1729   1.088       .  S
C1721      C1722   1.345       .  D
C1731      C1739   1.482       .  S
C1731      C1732   1.403       .  A
C1731      C1736   1.405       .  A
C1732      C1733   1.398       .  A
C1732      H1741   1.083       .  S
C1733      C1734   1.406       .  A
C1733      H1742   1.082       .  S
C1734      C1737   1.483       .  S
C1734      C1735   1.404       .  A
C1735      C1736   1.396       .  A
C1735      H1743   1.083       .  S
C1736      H1744   1.083       .  S
C1737      H1745   1.084       .  S
C1737      C1738   1.350       .  D
C1738      H1746   1.083       .  S
C1739      H1747   1.084       .  S
C1739      C1740   1.349       .  D
C1740      H1748   1.084       .  S
C1749      C1757   1.490       .  S
C1749      C1750   1.403       .  A
C1749      C1754   1.410   1_556  A
C1750      C1751   1.397       .  A
C1750      H1759   1.084       .  S
C1751      C1752   1.408       .  A
C1751      H1760   1.082       .  S
C1752      C1755   1.488       .  S
C1752      C1753   1.402   1_556  A
C1753      C1754   1.401       .  A
C1753      H1761   1.084       .  S
C1754      H1762   1.080       .  S
C1755      H1763   1.087   1_556  S
C1755      C1756   1.342       .  D
C1756      H1764   1.085       .  S
C1757      H1765   1.086       .  S
C1757      C1758   1.346       .  D
C1758      H1766   1.085       .  S
C1767      C1775   1.479       .  S
C1767      C1768   1.401   1_554  A
C1767      C1772   1.405       .  A
C1768      C1769   1.394       .  A
C1768      H1777   1.083       .  S
C1769      C1770   1.410   1_556  A
C1769      H1778   1.079       .  S
C1770      C1773   1.488       .  S
C1770      C1771   1.405       .  A
C1771      C1772   1.398       .  A
C1771      H1779   1.083       .  S
C1772      H1780   1.082       .  S
C1773      H1781   1.086       .  S
C1773      C1774   1.346   1_554  D
C1774      H1782   1.083       .  S
C1775      H1783   1.088   1_554  S
C1775      C1776   1.344       .  D
C1776      H1784   1.085       .  S
C1785      C1793   1.490       .  S
C1785      C1786   1.405       .  A
C1785      C1790   1.409       .  A
C1786      C1787   1.400       .  A
C1786      H1795   1.083       .  S
C1787      C1788   1.406       .  A
C1787      H1796   1.082       .  S
C1788      C1791   1.486       .  S
C1788      C1789   1.404       .  A
C1789      C1790   1.400       .  A
C1789      H1797   1.083       .  S
C1790      H1798   1.082       .  S
C1791      H1799   1.087       .  S
C1791      C1792   1.347       .  D
C1792      H1800   1.085       .  S
C1793      H1801   1.085       .  S
C1793      C1794   1.347       .  D
C1794      H1802   1.086       .  S
C1803      C1811   1.489       .  S
C1803      C1804   1.404       .  A
C1803      C1808   1.406       .  A
C1804      C1805   1.403       .  A
C1804      H1813   1.084       .  S
C1805      C1806   1.409       .  A
C1805      H1814   1.081       .  S
C1806      C1809   1.490       .  S
C1806      C1807   1.404       .  A
C1807      C1808   1.398       .  A
C1807      H1815   1.084       .  S
C1808      H1816   1.082       .  S
C1809      H1817   1.087       .  S
C1809      C1810   1.348       .  D
C1810      H1818   1.084       .  S
C1811      H1819   1.087       .  S
C1811      C1812   1.346       .  D
C1812      H1820   1.087       .  S
C1821      C1829   1.487       .  S
C1821      C1822   1.404       .  A
C1821      C1826   1.406       .  A
C1822      C1823   1.403       .  A
C1822      H1831   1.084       .  S
C1823      C1824   1.409       .  A
C1823      H1832   1.081       .  S
C1824      C1827   1.485       .  S
C1824      C1825   1.402       .  A
C1825      C1826   1.392       .  A
C1825      H1833   1.084       .  S
C1826      H1834   1.082       .  S
C1827      H1835   1.088       .  S
C1827      C1828   1.347       .  D
C1828      H1836   1.084       .  S
C1829      H1837   1.086       .  S
C1829      C1830   1.347       .  D
C1830      H1838   1.086       .  S
C1839      C1847   1.479       .  S
C1839      C1840   1.402       .  A
C1839      C1844   1.405       .  A
C1840      C1841   1.396       .  A
C1840      H1849   1.085       .  S
C1841      C1842   1.409       .  A
C1841      H1850   1.081       .  S
C1842      C1845   1.484       .  S
C1842      C1843   1.403       .  A
C1843      C1844   1.397       .  A
C1843      H1851   1.084       .  S
C1844      H1852   1.082       .  S
C1845      H1853   1.086       .  S
C1845      C1846   1.344       .  D
C1846      H1854   1.085       .  S
C1847      H1855   1.089       .  S
C1847      C1848   1.345       .  D
C1848      H1856   1.086       .  S
C1857      C1865   1.481       .  S
C1857      C1858   1.400   1_655  A
C1857      C1862   1.408       .  A
C1858      C1859   1.397       .  A
C1858      H1867   1.084       .  S
C1859      C1860   1.409   1_455  A
C1859      H1868   1.081       .  S
C1860      C1863   1.482       .  S
C1860      C1861   1.400       .  A
C1861      C1862   1.395       .  A
C1861      H1869   1.084       .  S
C1862      H1870   1.082       .  S
C1863      H1871   1.085       .  S
C1863      C1864   1.344   1_655  D
C1864      H1872   1.084       .  S
C1865      H1873   1.086   1_655  S
C1865      C1866   1.343       .  D
C1866      H1874   1.085       .  S
C1875      C1883   1.484       .  S
C1875      C1876   1.404       .  A
C1875      C1880   1.407       .  A
C1876      C1877   1.399       .  A
C1876      H1885   1.083       .  S
C1877      C1878   1.406       .  A
C1877      H1886   1.083       .  S
C1878      C1881   1.479       .  S
C1878      C1879   1.400       .  A
C1879      C1880   1.396       .  A
C1879      H1887   1.084       .  S
C1880      H1888   1.082       .  S
C1881      H1889   1.087       .  S
C1881      C1882   1.342       .  D
C1882      H1890   1.087       .  S
C1883      H1891   1.087       .  S
C1883      C1884   1.347       .  D
C1884      H1892   1.085       .  S
C1893      C1901   1.489       .  S
C1893      C1894   1.404       .  A
C1893      C1898   1.410       .  A
C1894      C1895   1.393       .  A
C1894      H1903   1.083       .  S
C1895      C1896   1.402       .  A
C1895      H1904   1.084       .  S
C1896      C1899   1.484       .  S
C1896      C1897   1.404       .  A
C1897      C1898   1.405       .  A
C1897      H1905   1.083       .  S
C1898      H1906   1.081       .  S
C1899      H1907   1.086       .  S
C1899      C1900   1.348       .  D
C1900      H1908   1.087       .  S
C1901      H1909   1.087       .  S
C1901      C1902   1.348       .  D
C1902      H1910   1.083       .  S
C1911      C1919   1.489       .  S
C1911      C1912   1.403       .  A
C1911      C1916   1.410       .  A
C1912      C1913   1.398       .  A
C1912      H1921   1.084       .  S
C1913      C1914   1.408       .  A
C1913      H1922   1.082       .  S
C1914      C1917   1.485       .  S
C1914      C1915   1.399   1_455  A
C1915      C1916   1.397   1_655  A
C1915      H1923   1.083       .  S
C1916      H1924   1.080   1_455  S
C1917      H1925   1.086   1_455  S
C1917      C1918   1.343       .  D
C1918      H1926   1.086       .  S
C1919      H1927   1.084       .  S
C1919      C1920   1.348       .  D
C1920      H1928   1.081   1_455  S
C1929      C1937   1.484       .  S
C1929      C1930   1.403       .  A
C1929      C1934   1.409       .  A
C1930      C1931   1.391       .  A
C1930      H1939   1.085       .  S
C1931      C1932   1.402       .  A
C1931      H1940   1.082       .  S
C1932      C1935   1.478       .  S
C1932      C1933   1.403       .  A
C1933      C1934   1.401       .  A
C1933      H1941   1.084       .  S
C1934      H1942   1.079       .  S
C1935      H1943   1.086       .  S
C1935      C1936   1.347       .  D
C1936      H1944   1.087       .  S
C1937      H1945   1.088       .  S
C1937      C1938   1.348       .  D
C1938      H1946   1.083       .  S
C1947      C1955   1.492       .  S
C1947      C1948   1.405       .  A
C1947      C1952   1.409       .  A
C1948      C1949   1.398       .  A
C1948      H1957   1.084       .  S
C1949      C1950   1.408       .  A
C1949      H1958   1.081       .  S
C1950      C1953   1.494       .  S
C1950      C1951   1.405       .  A
C1951      C1952   1.402       .  A
C1951      H1959   1.084       .  S
C1952      H1960   1.080       .  S
C1953      H1961   1.087       .  S
C1953      C1954   1.347       .  D
C1954      H1962   1.085       .  S
C1955      H1963   1.087       .  S
C1955      C1956   1.349       .  D
C1956      H1964   1.083       .  S
C1965      C1973   1.483       .  S
C1965      C1966   1.403       .  A
C1965      C1970   1.407       .  A
C1966      C1967   1.396       .  A
C1966      H1975   1.084       .  S
C1967      C1968   1.406       .  A
C1967      H1976   1.083       .  S
C1968      C1971   1.483       .  S
C1968      C1969   1.403       .  A
C1969      C1970   1.400       .  A
C1969      H1977   1.083       .  S
C1970      H1978   1.082       .  S
C1971      H1979   1.087       .  S
C1971      C1972   1.342       .  D
C1972      H1980   1.086       .  S
C1973      H1981   1.085       .  S
C1973      C1974   1.349       .  D
C1974      H1982   1.086       .  S
C1983      C1991   1.487       .  S
C1983      C1984   1.403       .  A
C1983      C1988   1.406       .  A
C1984      C1985   1.404       .  A
C1984      H1993   1.083       .  S
C1985      C1986   1.410       .  A
C1985      H1994   1.082       .  S
C1986      C1989   1.489       .  S
C1986      C1987   1.403       .  A
C1987      C1988   1.395       .  A
C1987      H1995   1.084       .  S
C1988      H1996   1.083       .  S
C1989      H1997   1.086       .  S
C1989      C1990   1.348       .  D
C1990      H1998   1.085       .  S
C1991      H1999   1.086       .  S
C1991      C1992   1.342       .  D
C1992      H2000   1.086       .  S
C2001      C2009   1.491       .  S
C2001      C2002   1.407       .  A
C2001      C2006   1.406       .  A
C2002      C2003   1.404       .  A
C2002      H2011   1.084       .  S
C2003      C2004   1.407       .  A
C2003      H2012   1.082       .  S
C2004      C2007   1.487       .  S
C2004      C2005   1.403       .  A
C2005      C2006   1.395       .  A
C2005      H2013   1.084       .  S
C2006      H2014   1.081       .  S
C2007      H2015   1.087       .  S
C2007      C2008   1.347       .  D
C2008      H2016   1.084       .  S
C2009      H2017   1.085       .  S
C2009      C2010   1.353       .  D
C2010      H2018   1.084       .  S
C2019      C2027   1.488       .  S
C2019      C2020   1.405       .  A
C2019      C2024   1.405       .  A
C2020      C2021   1.403       .  A
C2020      H2029   1.083       .  S
C2021      C2022   1.409       .  A
C2021      H2030   1.081       .  S
C2022      C2025   1.490       .  S
C2022      C2023   1.405       .  A
C2023      C2024   1.396       .  A
C2023      H2031   1.084       .  S
C2024      H2032   1.083       .  S
C2025      H2033   1.088       .  S
C2025      C2026   1.349       .  D
C2026      H2034   1.083       .  S
C2027      H2035   1.086       .  S
C2027      C2028   1.351       .  D
C2028      H2036   1.086       .  S
C2037      C2045   1.490       .  S
C2037      C2038   1.402       .  A
C2038      C2039   1.399       .  A
C2038      H2047   1.083       .  S
C2039      H2048   1.081       .  S
C2040      C2043   1.482       .  S
C2040      C2041   1.401       .  A
C2041      C2042   1.395       .  A
C2041      H2049   1.084       .  S
C2042      H2050   1.081       .  S
C2043      H2051   1.085       .  S
C2044      H2052   1.084       .  S
C2045      H2053   1.085       .  S
C2045      C2046   1.347       .  D
C2055      C2063   1.491       .  S
C2055      C2056   1.405       .  A
C2055      C2060   1.407       .  A
C2056      C2057   1.406       .  A
C2056      H2065   1.082       .  S
C2057      C2058   1.410       .  A
C2057      H2066   1.081       .  S
C2058      C2061   1.487       .  S
C2058      C2059   1.401       .  A
C2059      C2060   1.393       .  A
C2059      H2067   1.083       .  S
C2060      H2068   1.082       .  S
C2061      C2062   1.346       .  D
C2062      H2070   1.085       .  S
C2063      H2071   1.086       .  S
C2063      C2064   1.345       .  D
C2064      H2072   1.086       .  S
C2073      C2081   1.484       .  S
C2073      C2074   1.402       .  A
C2073      C2078   1.407       .  A
C2074      C2075   1.398   1_655  A
C2074      H2083   1.083       .  S
C2075      C2076   1.409       .  A
C2075      H2084   1.081       .  S
C2076      C2079   1.488       .  S
C2076      C2077   1.402       .  A
C2077      C2078   1.396   1_455  A
C2077      H2085   1.083       .  S
C2078      H2086   1.081       .  S
C2079      H2087   1.085       .  S
C2079      C2080   1.346       .  D
C2080      H2088   1.083       .  S
C2081      H2089   1.085       .  S
C2081      C2082   1.348       .  D
C2082      H2090   1.084       .  S
C2091      C2099   1.489       .  S
C2091      C2092   1.405       .  A
C2091      C2096   1.408       .  A
C2092      C2093   1.399       .  A
C2092      H2101   1.083       .  S
C2093      C2094   1.402       .  A
C2093      H2102   1.083       .  S
C2094      C2097   1.487       .  S
C2094      C2095   1.408       .  A
C2095      C2096   1.399       .  A
C2095      H2103   1.082       .  S
C2096      H2104   1.081       .  S
C2097      H2105   1.087       .  S
C2097      C2098   1.343       .  D
C2098      H2106   1.086       .  S
C2099      H2107   1.085       .  S
C2099      C2100   1.348       .  D
C2100      H2108   1.085       .  S
C2109      C2117   1.494       .  S
C2109      C2110   1.407       .  A
C2109      C2114   1.408       .  A
C2110      C2111   1.402       .  A
C2110      H2119   1.083       .  S
C2111      C2112   1.405       .  A
C2111      H2120   1.081       .  S
C2112      C2115   1.486       .  S
C2112      C2113   1.404       .  A
C2113      C2114   1.397       .  A
C2113      H2121   1.084       .  S
C2114      H2122   1.079       .  S
C2115      H2123   1.087       .  S
C2115      C2116   1.349       .  D
C2116      H2124   1.084       .  S
C2117      C2118   1.351       .  D
C2118      H2126   1.083       .  S
C2127      C2135   1.480       .  S
C2127      C2128   1.402       .  A
C2127      C2132   1.408       .  A
C2128      C2129   1.392       .  A
C2128      H2137   1.083       .  S
C2129      C2130   1.404       .  A
C2129      H2138   1.083       .  S
C2130      C2133   1.481       .  S
C2130      C2131   1.404       .  A
C2131      C2132   1.402       .  A
C2131      H2139   1.083       .  S
C2132      H2140   1.081       .  S
C2133      H2141   1.086       .  S
C2133      C2134   1.344       .  D
C2134      H2142   1.087       .  S
C2135      H2143   1.087       .  S
C2135      C2136   1.345       .  D
C2136      H2144   1.084       .  S
