geometry optimzed in LAMMPS
_audit_creation_date              2020-11-30 
_audit_creation_method            'lammps2cif' 
_symmetry_space_group_name_H-M    'P1' 
_symmetry_Int_Tables_number       1 
_symmetry_cell_setting            triclinic 
loop_ 
_symmetry_equiv_pos_as_xyz 
  x,y,z 
_cell_length_a                    37.50343573226519 
_cell_length_b                    56.9240489085761 
_cell_length_c                    27.479847314824102 
_cell_angle_alpha                 90.75893974025313 
_cell_angle_beta                  90.04094123399517 
_cell_angle_gamma                 90.08496418036574 
loop_ 
_atom_site_label 
_atom_site_type_symbol 
_atom_site_fract_x 
_atom_site_fract_y 
_atom_site_fract_z 
_atom_site_charge 
N1          N  0.80856397  0.10334500  0.18413912    -0.27170
N2          N  0.79277792  0.08339329  0.19559102    -0.35030
C3          C  0.81093647  0.06533551  0.17576844     0.01170
C4          C  0.83929309  0.07439312  0.15021391     0.07200
C5          C  0.83724407  0.09850639  0.15636799    -0.05900
H6          H  0.80405158  0.04699798  0.17980819     0.07870
H7          H  0.85533932  0.11151296  0.14203987     0.09070
Cu8        Cu  0.74777041  0.08155716  0.23830434     0.44170
Cu9        Cu  0.79003238  0.13590509  0.20795281     0.41990
Cu10       Cu  0.71510513  0.13498302  0.29378435     0.43880
N11         N  0.70542141  0.08268210  0.28597753    -0.34550
N12         N  0.69447088  0.10186912  0.30859285    -0.28810
C13         C  0.66771297  0.09610455  0.33868034    -0.04910
C14         C  0.66077849  0.07196342  0.33459121     0.07310
C15         C  0.68558728  0.06438213  0.30005405     0.01100
H16         H  0.65439884  0.10883779  0.36177868     0.08760
H17         H  0.68959403  0.04725009  0.28470952     0.07830
N18         N  0.73784335  0.16547906  0.26641609    -0.36000
N19         N  0.76498154  0.16576282  0.23561827    -0.28180
C20         C  0.77271958  0.18818300  0.22478790    -0.03420
C21         C  0.74912546  0.20261942  0.24945570     0.05190
C22         C  0.72753647  0.18773616  0.27572867     0.03280
H23         H  0.79377919  0.19355990  0.20046656     0.08390
H24         H  0.70593384  0.19270244  0.29978733     0.07220
O25         O  0.96150713  0.03464144  0.00813130    -0.72820
O26         O  0.03362779  0.00157491  0.92238752    -0.73800
O27         O  0.95690891  0.00282797  0.92886235    -0.62420
O28         O  0.03667078  0.03437283  0.00097696    -0.70830
O29         O  0.03795168  0.00527520  0.05396635    -0.70390
O30         O  0.95926705  0.97255699  0.97875969    -0.61640
O31         O  0.03550923  0.97252644  0.97551381    -0.74150
O32         O  0.96176852  0.00449036  0.05840501    -0.72930
Cu33       Cu  0.99711306  0.01932185  0.96315721     1.04560
Cu34       Cu  0.99869016  0.98763424  0.01840370     1.04330
C35         C  0.95039596  0.02477533  0.04686764     0.93380
C36         C  0.04662407  0.98204451  0.93657086     0.92520
C37         C  0.94546507  0.98279160  0.94210081     0.84660
C38         C  0.04947077  0.02511542  0.03916653     0.90930
N39         N  0.31311031  0.10191998  0.28872880    -0.27170
N40         N  0.29341784  0.08265417  0.28836202    -0.35030
C41         C  0.30999154  0.06618245  0.31466687     0.01170
C42         C  0.34146299  0.07561332  0.33290924     0.07200
C43         C  0.34276057  0.09819754  0.31494306    -0.05900
H44         H  0.29998684  0.04855414  0.31990697     0.07870
H45         H  0.36395440  0.11090708  0.31913119     0.09070
Cu46       Cu  0.24587880  0.07945024  0.25018424     0.44170
Cu47       Cu  0.29791917  0.13309981  0.25711674     0.41990
Cu48       Cu  0.21017339  0.13414440  0.20523249     0.43880
N49         N  0.20340721  0.08134860  0.20202061    -0.34550
N50         N  0.19113587  0.10128015  0.18456021    -0.28810
C51         C  0.16513384  0.09646317  0.15227403    -0.04910
C52         C  0.16075651  0.07229973  0.14900179     0.07310
C53         C  0.18518769  0.06334274  0.18178385     0.01100
H54         H  0.15041563  0.10963090  0.13260797     0.08760
H55         H  0.18895135  0.04525030  0.19166026     0.07830
N56         N  0.23796358  0.16419445  0.22572443    -0.36000
N57         N  0.27122706  0.16377265  0.24108992    -0.28180
C58         C  0.28250400  0.18587274  0.24929043    -0.03420
C59         C  0.25464068  0.20133505  0.23999670     0.05190
C60         C  0.22688567  0.18659754  0.22486842     0.03280
H61         H  0.30915120  0.18973732  0.26112726     0.08390
H62         H  0.20020727  0.19167506  0.21443540     0.07220
N63         N  0.68408537  0.90376743  0.69387341    -0.27170
N64         N  0.70091835  0.92363390  0.70397959    -0.35030
C65         C  0.68349568  0.94154605  0.68346234     0.01170
C66         C  0.65364362  0.93266270  0.66009700     0.07200
C67         C  0.65517647  0.90858243  0.66681419    -0.05900
H68         H  0.69273218  0.95951455  0.68452227     0.07870
H69         H  0.63667526  0.89552258  0.65284775     0.09070
Cu70       Cu  0.74560273  0.92589223  0.74723076     0.44170
Cu71       Cu  0.70253539  0.87121488  0.71609503     0.41990
Cu72       Cu  0.78144864  0.87198230  0.79390041     0.43880
N73         N  0.78516240  0.92481415  0.79904119    -0.34550
N74         N  0.79817913  0.90516045  0.81691686    -0.28810
C75         C  0.82390784  0.91064576  0.84928957    -0.04910
C76         C  0.82670581  0.93486110  0.85210980     0.07310
C77         C  0.80216102  0.94327007  0.81933584     0.01100
H78         H  0.84040099  0.89798067  0.86774028     0.08760
H79         H  0.79786479  0.96140327  0.80962775     0.07830
N80         N  0.75843637  0.84150855  0.76537615    -0.36000
N81         N  0.72943747  0.84124405  0.73794492    -0.28180
C82         C  0.72114221  0.81884622  0.72646798    -0.03420
C83         C  0.74648368  0.80429054  0.74685073     0.05190
C84         C  0.76939821  0.81926705  0.77182128     0.03280
H85         H  0.69770139  0.81365815  0.70610486     0.08390
H86         H  0.79231005  0.81432019  0.79330881     0.07220
O87         O  0.53518674  0.97115954  0.50321491    -0.72820
O88         O  0.46149201  0.00486343  0.42638757    -0.73800
O89         O  0.53689847  0.00494631  0.42830409    -0.62420
O90         O  0.45966271  0.97154218  0.50181536    -0.70830
O91         O  0.46027157  0.99995809  0.55709662    -0.70390
O92         O  0.53573707  0.03376424  0.48309657    -0.61640
O93         O  0.46003745  0.03333718  0.48151244    -0.74150
O94         O  0.53581887  0.99988151  0.55783322    -0.72930
Cu95       Cu  0.49835294  0.98714408  0.46305478     1.04560
Cu96       Cu  0.49796507  0.01773022  0.52179353     1.04330
C97         C  0.54752563  0.97999748  0.54257608     0.93380
C98         C  0.44861156  0.02430251  0.44152032     0.92520
C99         C  0.54825203  0.02487291  0.44388868     0.84660
C100        C  0.44756533  0.98052829  0.54141036     0.90930
N101        N  0.30769183  0.90229933  0.68703376    -0.27170
N102        N  0.29104823  0.92254968  0.69314390    -0.35030
C103        C  0.30871493  0.93915602  0.66856699     0.01170
C104        C  0.33801604  0.92893119  0.64585215     0.07200
C105        C  0.33666078  0.90555625  0.65922765    -0.05900
H106        H  0.30110262  0.95747969  0.66800359     0.07870
H107        H  0.35567001  0.89189049  0.65113667     0.09070
Cu108      Cu  0.24713593  0.92713048  0.73815286     0.44170
Cu109      Cu  0.28994143  0.87078642  0.71454954     0.41990
Cu110      Cu  0.20891208  0.87331587  0.78314343     0.43880
N111        N  0.20732248  0.92612195  0.79046845    -0.34550
N112        N  0.19377017  0.90632293  0.80695549    -0.28810
C113        C  0.16804489  0.91134064  0.83933445    -0.04910
C114        C  0.16541248  0.93546702  0.84394997     0.07310
C115        C  0.19038922  0.94432636  0.81193627     0.01100
H116        H  0.15134048  0.89838166  0.85662000     0.08760
H117        H  0.19453028  0.96253743  0.80271103     0.07830
N118        N  0.23208282  0.84224519  0.76045114    -0.36000
N119        N  0.26270862  0.84127602  0.73687891    -0.28180
C120        C  0.27167045  0.81866910  0.72968117    -0.03420
C121        C  0.24556011  0.80473835  0.75017126     0.05190
C122        C  0.22051069  0.82031018  0.76858364     0.03280
H123        H  0.29562669  0.81278970  0.71132812     0.08390
H124        H  0.19550832  0.81625677  0.78596216     0.07220
N125        N  0.81198658  0.60174770  0.80160170    -0.27170
N126        N  0.79220796  0.58266378  0.79674132    -0.35030
C127        C  0.80836216  0.56476529  0.81926926     0.01170
C128        C  0.84072034  0.57253374  0.83842234     0.07200
C129        C  0.84168520  0.59625867  0.82641133    -0.05900
H130        H  0.79639334  0.54766012  0.82192130     0.07870
H131        H  0.86242579  0.60881914  0.83540974     0.09070
Cu132      Cu  0.74481922  0.58114071  0.75775496     0.44170
Cu133      Cu  0.79603902  0.63482507  0.77819408     0.41990
Cu134      Cu  0.71439952  0.63561884  0.70774755     0.43880
N135        N  0.70129719  0.58353429  0.71140428    -0.34550
N136        N  0.69063488  0.60353528  0.69240197    -0.28810
C137        C  0.66258210  0.59935870  0.66306480    -0.04910
C138        C  0.65476891  0.57561215  0.66427769     0.07310
C139        C  0.68022320  0.56605943  0.69467736     0.01100
H140        H  0.64966913  0.61258622  0.64145703     0.08760
H141        H  0.68323550  0.54774498  0.70384678     0.07830
N142        N  0.74020557  0.66566931  0.73235364    -0.36000
N143        N  0.77007586  0.66557026  0.75794155    -0.28180
C144        C  0.77919611  0.68792211  0.76891007    -0.03420
C145        C  0.75353726  0.70270965  0.74983922     0.05190
C146        C  0.72954773  0.68797934  0.72639018     0.03280
H147        H  0.80312222  0.69295376  0.78840948     0.08390
H148        H  0.70589227  0.69311705  0.70666096     0.07220
N149        N  0.80503545  0.40407509  0.18727323    -0.27170
N150        N  0.78806615  0.42398269  0.19656020    -0.35030
C151        C  0.80664083  0.44186180  0.17731502     0.01170
C152        C  0.83642934  0.43271855  0.15425288     0.07200
C153        C  0.83478237  0.40875680  0.16183249    -0.05900
H154        H  0.79899744  0.46016110  0.17981360     0.07870
H155        H  0.85407633  0.39568558  0.15051995     0.09070
Cu156      Cu  0.74103856  0.42585020  0.23636461     0.44170
Cu157      Cu  0.78712664  0.37138039  0.20968264     0.41990
Cu158      Cu  0.71003828  0.37122058  0.28857509     0.43880
N159        N  0.69841903  0.42348051  0.28431599    -0.34550
N160        N  0.68839471  0.40379660  0.30523890    -0.28810
C161        C  0.66212477  0.40859737  0.33707414    -0.04910
C162        C  0.65509455  0.43252234  0.33639915     0.07310
C163        C  0.67829115  0.44123006  0.30159543     0.01100
H164        H  0.64923984  0.39557955  0.35937915     0.08760
H165        H  0.68046558  0.45898935  0.28893600     0.07830
N166        N  0.73486360  0.34090821  0.26355306    -0.36000
N167        N  0.76322072  0.34091976  0.23495982    -0.28180
C168        C  0.77292405  0.31856067  0.22559869    -0.03420
C169        C  0.74958771  0.30388724  0.24957847     0.05190
C170        C  0.72566298  0.31857491  0.27297903     0.03280
H171        H  0.79526992  0.31338287  0.20304366     0.08390
H172        H  0.70343570  0.31342962  0.29553642     0.07220
N173        N  0.31092422  0.60225745  0.70283532    -0.27170
N174        N  0.29372641  0.58250172  0.71199748    -0.35030
C175        C  0.31226486  0.56439789  0.69271692     0.01170
C176        C  0.34244749  0.57333697  0.67065560     0.07200
C177        C  0.34055367  0.59734368  0.67729973    -0.05900
H178        H  0.30401826  0.54618842  0.69380561     0.07870
H179        H  0.35917889  0.61032691  0.66414446     0.09070
Cu180      Cu  0.24556147  0.58141524  0.74957580     0.44170
Cu181      Cu  0.29348424  0.63520158  0.72378591     0.41990
Cu182      Cu  0.21460275  0.63737352  0.79792285     0.43880
N183        N  0.20059020  0.58540081  0.79330071    -0.34550
N184        N  0.19079260  0.60558030  0.81330815    -0.28810
C185        C  0.16277847  0.60195242  0.84275560    -0.04910
C186        C  0.15348655  0.57834392  0.84037668     0.07310
C187        C  0.17843798  0.56848723  0.80865728     0.01100
H188        H  0.15106129  0.61561165  0.86495010     0.08760
H189        H  0.18075100  0.55020298  0.79789215     0.07830
N190        N  0.23930743  0.66683844  0.77052299    -0.36000
N191        N  0.26867112  0.66609385  0.74410035    -0.28180
C192        C  0.27792067  0.68804908  0.73186878    -0.03420
C193        C  0.25258879  0.70336027  0.75056086     0.05190
C194        C  0.22878531  0.68926776  0.77534590     0.03280
H195        H  0.30180196  0.69231999  0.71201342     0.08390
H196        H  0.20540673  0.69492133  0.79532720     0.07220
O197        O  0.96194692  0.50648044  0.94086753    -0.72820
O198        O  0.03801517  0.47319286  0.01860889    -0.73800
O199        O  0.96203640  0.47401618  0.01860417    -0.62420
O200        O  0.03714989  0.50568182  0.93902859    -0.70830
O201        O  0.03992853  0.53468952  0.99334131    -0.70390
O202        O  0.96157203  0.50383052  0.07089010    -0.61640
O203        O  0.03732586  0.50254716  0.07258754    -0.74150
O204        O  0.96399100  0.53620226  0.99317924    -0.72930
Cu205      Cu  0.99985378  0.48879921  0.97749837     1.04560
Cu206      Cu  0.00083819  0.52035013  0.03430635     1.04330
C207        C  0.95108594  0.52682615  0.95460253     0.93380
C208        C  0.04898734  0.48252893  0.05853643     0.92520
C209        C  0.94935932  0.48388824  0.05688519     0.84660
C210        C  0.05071784  0.52508602  0.95360127     0.90930
O211        O  0.53487988  0.49920556  0.43723106    -0.72820
O212        O  0.46144197  0.53423881  0.51483284    -0.73800
O213        O  0.53700990  0.53350630  0.51342995    -0.62420
O214        O  0.45919407  0.49973536  0.43942129    -0.70830
O215        O  0.45843349  0.47202288  0.49546614    -0.70390
O216        O  0.53764652  0.50475025  0.56728887    -0.61640
O217        O  0.46185475  0.50645600  0.57036611    -0.74150
O218        O  0.53403160  0.47040862  0.49084731    -0.72930
Cu219      Cu  0.49816450  0.51765311  0.47430804     1.04560
Cu220      Cu  0.49806140  0.48742601  0.53292230     1.04330
C221        C  0.54571675  0.47915832  0.45132143     0.93380
C222        C  0.44966988  0.52591306  0.55457880     0.92520
C223        C  0.54949761  0.52436118  0.55207949     0.84380
C224        C  0.44627491  0.48069873  0.45626369     0.90930
N225        N  0.17854985  0.40526091  0.21639604    -0.27170
N226        N  0.19417537  0.42532121  0.22850533    -0.35030
C227        C  0.17491290  0.44314524  0.21047319     0.01170
C228        C  0.14549499  0.43382205  0.18652744     0.07200
C229        C  0.14905935  0.40974315  0.19033210    -0.05900
H230        H  0.18233222  0.46149641  0.21323175     0.07870
H231        H  0.13263624  0.39637506  0.17314001     0.09070
Cu232      Cu  0.24221068  0.42698440  0.26611715     0.44170
Cu233      Cu  0.19946460  0.37265643  0.23240553     0.41990
Cu234      Cu  0.28750791  0.37091527  0.28486070     0.43880
N235        N  0.29018443  0.42340430  0.30312800    -0.34550
N236        N  0.30673533  0.40315310  0.30953913    -0.28810
C237        C  0.33674726  0.40703450  0.33528946    -0.04910
C238        C  0.33923371  0.43083102  0.34518069     0.07310
C239        C  0.30923681  0.44067339  0.32467476     0.01100
H240        H  0.35514051  0.39350451  0.34642551     0.08760
H241        H  0.30179278  0.45903121  0.32537564     0.07830
N242        N  0.25947937  0.34112651  0.26299723    -0.36000
N243        N  0.22655246  0.34184929  0.24638491    -0.28180
C244        C  0.21473035  0.31984776  0.23868043    -0.03420
C245        C  0.24179362  0.30404202  0.24980707     0.05190
C246        C  0.26975431  0.31857408  0.26523604     0.03280
H247        H  0.18804010  0.31635103  0.22654331     0.08390
H248        H  0.29596541  0.31324948  0.27718660     0.07220
C249        C  0.42550627  0.46127864  0.38092494    -0.05660
C250        C  0.41804628  0.46812037  0.42904040     0.00270
C251        C  0.38452990  0.46255181  0.44984990    -0.08300
C252        C  0.35927323  0.45047321  0.42098236    -0.05680
C253        C  0.36716912  0.44318280  0.37329545     0.00260
C254        C  0.40085889  0.44828960  0.35295188    -0.08210
C255        C  0.41063173  0.43996531  0.30202105     0.62170
H256        H  0.45124919  0.46575214  0.36578396     0.12860
H257        H  0.33323212  0.44631213  0.43558751     0.12870
C258        C  0.37516104  0.46970446  0.50174476     0.62400
F259        F  0.44433627  0.44742705  0.28862659    -0.22770
F260        F  0.38637269  0.44859067  0.26884112    -0.20100
F261        F  0.41020044  0.41568627  0.29997284    -0.19770
F262        F  0.37950791  0.49364762  0.50792738    -0.19820
F263        F  0.39703510  0.45816045  0.53406360    -0.20150
F264        F  0.34018177  0.46422946  0.51310115    -0.22820
C265        C  0.13396223  0.45960153  0.11700272    -0.05660
C266        C  0.12000090  0.44655455  0.15540096     0.00270
C267        C  0.08260451  0.44565987  0.16252286    -0.08300
C268        C  0.06029328  0.45760537  0.12979486    -0.05680
C269        C  0.07427481  0.46989509  0.09019894     0.00260
C270        C  0.11167197  0.47110822  0.08385319    -0.08210
C271        C  0.12799218  0.48254809  0.03992275     0.62170
H272        H  0.16261221  0.45983494  0.11191109     0.12860
H273        H  0.03161942  0.45729112  0.13460209     0.12870
C274        C  0.06645702  0.43275188  0.20518573     0.62400
F275        F  0.16447983  0.48548579  0.04488529    -0.22770
F276        F  0.11311119  0.50442049  0.03230528    -0.20100
F277        F  0.12179697  0.46802867  0.00025146    -0.19770
F278        F  0.08210545  0.44048000  0.24810959    -0.19820
F279        F  0.07195811  0.40887837  0.19971843    -0.20150
F280        F  0.03008569  0.43650303  0.20874431    -0.22820
C281        C  0.13307907  0.54176116  0.87913109    -0.05660
C282        C  0.12580964  0.56533679  0.86859337     0.00270
C283        C  0.09254961  0.57494393  0.88386973    -0.08300
C284        C  0.06981360  0.56113005  0.91269626    -0.05680
C285        C  0.07721660  0.53753543  0.92301655     0.00260
C286        C  0.10892869  0.52732019  0.90378384    -0.08210
C287        C  0.12013715  0.50180690  0.90769204     0.62170
H288        H  0.15817741  0.53415129  0.86750551     0.12860
H289        H  0.04524648  0.56864844  0.92656182     0.12870
C290        C  0.07962540  0.59912200  0.86921953     0.62400
F291        F  0.12698273  0.49288531  0.86154705    -0.22770
F292        F  0.09497346  0.48757929  0.92840903    -0.20100
F293        F  0.15113025  0.50058572  0.93485765    -0.19770
F294        F  0.08851220  0.60362629  0.82139193    -0.19820
F295        F  0.09431885  0.61601930  0.89972820    -0.20150
F296        F  0.04287426  0.60082096  0.87276579    -0.22820
C297        C  0.36969142  0.56383380  0.59143152    -0.05660
C298        C  0.36944914  0.56057419  0.64179874     0.00270
C299        C  0.39600157  0.54671371  0.66371828    -0.08300
C300        C  0.42151753  0.53567622  0.63377633    -0.05680
C301        C  0.42191874  0.53872979  0.58301718     0.00260
C302        C  0.39565140  0.55333481  0.56130548    -0.08210
C303        C  0.39463073  0.55814380  0.50696137     0.62170
H304        H  0.34942922  0.57505271  0.57599230     0.12860
H305        H  0.44187807  0.52484871  0.65010051     0.12870
C306        C  0.39799607  0.54436140  0.71861007     0.62400
F307        F  0.36449314  0.57058944  0.49385263    -0.22770
F308        F  0.39444218  0.53728867  0.48065585    -0.20100
F309        F  0.42406370  0.57132853  0.49409472    -0.19770
F310        F  0.36760862  0.53338664  0.73546610    -0.19820
F311        F  0.40075182  0.56641394  0.74008028    -0.20150
F312        F  0.42722252  0.53130012  0.73284271    -0.22820
C313        C  0.59587250  0.43305505  0.37663657    -0.05660
C314        C  0.62760855  0.44520596  0.36584915     0.00270
C315        C  0.63225879  0.46842357  0.38466609    -0.08300
C316        C  0.60395207  0.47898035  0.41020754    -0.05680
C317        C  0.57298970  0.46660634  0.42215683     0.00260
C318        C  0.56868528  0.44319130  0.40530997    -0.08210
C319        C  0.53505830  0.42929880  0.41598001     0.62170
H320        H  0.59241918  0.41538827  0.36233043     0.12860
H321        H  0.60613209  0.49714535  0.42174757     0.12870
C322        C  0.66690518  0.48214049  0.38051211     0.62400
F323        F  0.53474360  0.40775491  0.39200409    -0.22770
F324        F  0.50550179  0.44176772  0.40104937    -0.20100
F325        F  0.53260670  0.42523449  0.46534208    -0.19770
F326        F  0.66874471  0.49265497  0.33557417    -0.19820
F327        F  0.69596977  0.46758758  0.38706110    -0.20150
F328        F  0.66905871  0.49971259  0.41575659    -0.22820
C329        C  0.88439119  0.46265501  0.15529251    -0.05660
C330        C  0.86464909  0.44595055  0.12869139     0.00270
C331        C  0.87149223  0.44264569  0.07849049    -0.08300
C332        C  0.89910838  0.45559249  0.05697553    -0.05680
C333        C  0.91983632  0.47194780  0.08358365     0.00260
C334        C  0.91202273  0.47580059  0.13379370    -0.08210
C335        C  0.93277567  0.49325095  0.16514498     0.62170
H336        H  0.87809143  0.46512794  0.19345495     0.12860
H337        H  0.90460648  0.45300196  0.01863530     0.12870
C338        C  0.84902658  0.42607541  0.04730233     0.62400
F339        F  0.92249278  0.49256789  0.21349655    -0.22770
F340        F  0.92689091  0.51581158  0.14891757    -0.20100
F341        F  0.96880594  0.48816162  0.16304114    -0.19770
F342        F  0.81327895  0.43137496  0.05308171    -0.19820
F343        F  0.85493402  0.40312526  0.06080793    -0.20150
F344        F  0.85714008  0.42783431  0.99833845    -0.22820
C345        C  0.88833536  0.57322261  0.90126170    -0.05660
C346        C  0.86798702  0.55968491  0.86815374     0.00270
C347        C  0.87566837  0.53521409  0.86355808    -0.08300
C348        C  0.90263300  0.52555383  0.89292600    -0.05680
C349        C  0.92298767  0.53915501  0.92575998     0.00260
C350        C  0.91602111  0.56368258  0.92944738    -0.08210
C351        C  0.93779856  0.58015242  0.96192033     0.62170
H352        H  0.88218266  0.59168241  0.90545016     0.12860
H353        H  0.90775106  0.50686040  0.89071334     0.12870
C354        C  0.85619844  0.51878082  0.82848319     0.62400
F355        F  0.92902417  0.60350000  0.95506314    -0.22770
F356        F  0.97369712  0.57769722  0.95148916    -0.20100
F357        F  0.93164201  0.57513578  0.01029701    -0.19770
F358        F  0.85329356  0.52880176  0.78309491    -0.19820
F359        F  0.82283420  0.51364735  0.84683629    -0.20150
F360        F  0.87405682  0.49767665  0.82221210    -0.22820
C361        C  0.56584628  0.55557846  0.61077713    -0.05660
C362        C  0.57693401  0.53700594  0.58055149     0.00270
C363        C  0.61334159  0.53067886  0.57886479    -0.08300
C364        C  0.63791972  0.54370323  0.60696684    -0.05680
C365        C  0.62703408  0.56271858  0.63636228     0.00260
C366        C  0.59028712  0.56846136  0.63943780    -0.08210
C367        C  0.57659922  0.58735313  0.67416840     0.62170
H368        H  0.53769360  0.55982266  0.61191188     0.12860
H369        H  0.66603040  0.53939154  0.60556996     0.12870
C370        C  0.62611291  0.51085368  0.54604614     0.62400
F371        F  0.53979299  0.58685117  0.67793719    -0.22770
F372        F  0.58632790  0.60927657  0.65783807    -0.20100
F373        F  0.59056364  0.58400828  0.72016884    -0.19770
F374        F  0.61811255  0.51622624  0.49848578    -0.19820
F375        F  0.60931358  0.49011293  0.55826665    -0.20150
F376        F  0.66256898  0.50745568  0.54951737    -0.22820
C377        C  0.25286154  0.76677603  0.70742320    -0.05660
C378        C  0.24538780  0.77877290  0.75116129     0.00270
C379        C  0.24089031  0.76592456  0.79459182    -0.08300
C380        C  0.24405464  0.74136522  0.79234286    -0.05680
C381        C  0.25163787  0.72933288  0.74868704     0.00260
C382        C  0.25577819  0.74216463  0.70510751    -0.08210
C383        C  0.26260233  0.73030611  0.65612039     0.62170
H384        H  0.25658402  0.77697014  0.67482754     0.12860
H385        H  0.24062714  0.73123774  0.82507580     0.12870
C386        C  0.23355037  0.77777393  0.84345174     0.62400
F387        F  0.25759935  0.74562915  0.61799721    -0.22770
F388        F  0.23948553  0.71160361  0.64916790    -0.20100
F389        F  0.29739082  0.72244961  0.65398693    -0.19770
F390        F  0.19905305  0.78621274  0.84435637    -0.19820
F391        F  0.25725071  0.79606393  0.85142280    -0.20150
F392        F  0.23712574  0.76230982  0.88161372    -0.22820
C393        C  0.40960382  0.94528364  0.55293716    -0.05660
C394        C  0.41897144  0.96806192  0.56894729     0.00270
C395        C  0.40063418  0.97797392  0.60975761    -0.08300
C396        C  0.37509503  0.96420131  0.63371568    -0.05680
C397        C  0.36614298  0.94139676  0.61795353     0.00260
C398        C  0.38306836  0.93191658  0.57587386    -0.08210
C399        C  0.37337727  0.90810429  0.55387289     0.62170
H400        H  0.42343337  0.93773023  0.52194366     0.12860
H401        H  0.36192783  0.97120276  0.66575980     0.12870
C402        C  0.40704785  0.00294846  0.62832776     0.62400
F403        F  0.38484712  0.90603591  0.50611429    -0.22770
F404        F  0.33681030  0.90491200  0.55371775    -0.20100
F405        F  0.38955973  0.89051947  0.58004087    -0.19770
F406        F  0.40173185  0.01867106  0.59104601    -0.19820
F407        F  0.44141308  0.00506939  0.64616264    -0.20150
F408        F  0.38398475  0.00914922  0.66567171    -0.22820
C409        C  0.74903039  0.76684779  0.79114686    -0.05660
C410        C  0.74763932  0.77824555  0.74619861     0.00270
C411        C  0.74883523  0.76472954  0.70248316    -0.08300
C412        C  0.75113059  0.74011265  0.70559021    -0.05680
C413        C  0.75258986  0.72873647  0.75052218     0.00260
C414        C  0.75101055  0.74221057  0.79420400    -0.08210
C415        C  0.74997527  0.73070561  0.84373553     0.62170
H416        H  0.74816328  0.77750142  0.82407950     0.12860
H417        H  0.75186481  0.72942729  0.67269204     0.12870
C418        C  0.74878036  0.77608582  0.65275356     0.62400
F419        F  0.74368623  0.74689698  0.88077920    -0.22770
F420        F  0.78220356  0.71996358  0.85306096    -0.20100
F421        F  0.72298760  0.71412679  0.84477998    -0.19770
F422        F  0.77485078  0.79326223  0.65088107    -0.19820
F423        F  0.71588728  0.78600310  0.64381389    -0.20150
F424        F  0.75551424  0.75991459  0.61582326    -0.22820
C425        C  0.61930643  0.93656179  0.58430051    -0.05660
C426        C  0.62708237  0.94552008  0.63079893     0.00270
C427        C  0.60844920  0.96548956  0.64855758    -0.08300
C428        C  0.58298513  0.97601884  0.61830292    -0.05680
C429        C  0.57517120  0.96727369  0.57129721     0.00260
C430        C  0.59380044  0.94698404  0.55387279    -0.08210
C431        C  0.58749237  0.93610176  0.50368842     0.62170
H432        H  0.63376099  0.92115612  0.57188047     0.12860
H433        H  0.56883989  0.99136183  0.63161384     0.12870
C434        C  0.61440712  0.97546065  0.69953888     0.62400
F435        F  0.61008507  0.91736713  0.49426543    -0.22770
F436        F  0.59347400  0.95265986  0.46818887    -0.20100
F437        F  0.55291546  0.92772892  0.50039099    -0.19770
F438        F  0.64683150  0.98694573  0.70172429    -0.19820
F439        F  0.61381444  0.95763112  0.73324957    -0.20150
F440        F  0.58826656  0.99149395  0.71259041    -0.22820
C441        C  0.22765878  0.23887151  0.21413844    -0.05660
C442        C  0.25309497  0.22772524  0.24351334     0.00270
C443        C  0.27369206  0.24192760  0.27611800    -0.08300
C444        C  0.26768059  0.26635985  0.27747281    -0.05680
C445        C  0.24248142  0.27755785  0.24769724     0.00260
C446        C  0.22118928  0.26323146  0.21611416    -0.08210
C447        C  0.19102793  0.27272139  0.18507427     0.62170
H448        H  0.21237071  0.22815650  0.18898482     0.12860
H449        H  0.28315614  0.27705079  0.30245182     0.12870
C450        C  0.30251741  0.23218270  0.30913157     0.62400
F451        F  0.17674623  0.25575925  0.15413424    -0.22770
F452        F  0.20317992  0.29080148  0.15634658    -0.20100
F453        F  0.16365141  0.28030324  0.21503424    -0.19770
F454        F  0.33167525  0.22566151  0.28136997    -0.19820
F455        F  0.28965620  0.21326352  0.33486226    -0.20150
F456        F  0.31435347  0.24867562  0.34296747    -0.22820
C457        C  0.37766607  0.04024263  0.34662376    -0.05660
C458        C  0.36885888  0.06311673  0.36164076     0.00270
C459        C  0.38506583  0.07278976  0.40400682    -0.08300
C460        C  0.41098012  0.05949437  0.42828076    -0.05680
C461        C  0.42057219  0.03668083  0.41283805     0.00260
C462        C  0.40293414  0.02662537  0.37144642    -0.08210
C463        C  0.40988501  0.00169516  0.35307355     0.62170
H464        H  0.36459243  0.03314083  0.31449596     0.12860
H465        H  0.42417237  0.06712865  0.45977755     0.12870
C466        C  0.37473105  0.09668823  0.42486919     0.62400
F467        F  0.38766735  0.99542468  0.31475998    -0.22770
F468        F  0.40389866  0.98590603  0.39005476    -0.20100
F469        F  0.44462236  0.99976187  0.33663508    -0.19770
F470        F  0.33803876  0.09913757  0.42532381    -0.19820
F471        F  0.38977292  0.11423277  0.39735886    -0.20150
F472        F  0.38662723  0.09963466  0.47228026    -0.22820
C473        C  0.88512993  0.95389610  0.84673522    -0.05660
C474        C  0.85560981  0.94839926  0.87526058     0.00270
C475        C  0.85414858  0.95601887  0.92423095    -0.08300
C476        C  0.88445252  0.96692798  0.94472420    -0.05680
C477        C  0.91483543  0.97182018  0.91656767     0.00260
C478        C  0.91445440  0.96618457  0.86591968    -0.08210
C479        C  0.94356138  0.97193674  0.82977551     0.62170
H480        H  0.88515628  0.94859533  0.80865617     0.12860
H481        H  0.88438863  0.97215469  0.98277442     0.12870
C482        C  0.82025211  0.95330555  0.95364565     0.62400
F483        F  0.95680647  0.95121643  0.81015084    -0.22770
F484        F  0.97136761  0.98457430  0.84959220    -0.20100
F485        F  0.92922422  0.98506398  0.79256671    -0.19770
F486        F  0.81181283  0.92977175  0.95779867    -0.19820
F487        F  0.79259915  0.96468011  0.93037322    -0.20150
F488        F  0.82361464  0.96292987  0.99995355    -0.22820
C489        C  0.09935608  0.06986311  0.11687743    -0.05660
C490        C  0.13329619  0.05956792  0.11978894     0.00270
C491        C  0.14017849  0.03847776  0.09312307    -0.08300
C492        C  0.11169967  0.02735512  0.06846481    -0.05680
C493        C  0.07779759  0.03758512  0.06640056     0.00260
C494        C  0.07176777  0.05964343  0.08922898    -0.08210
C495        C  0.03650351  0.07245539  0.08414241     0.62170
H496        H  0.09464700  0.08627219  0.13617676     0.12860
H497        H  0.11595576  0.01079649  0.04942213     0.12870
C498        C  0.17743106  0.02833141  0.08778958     0.62400
F499        F  0.03523717  0.09266656  0.11266445    -0.22770
F500        F  0.00884697  0.05809088  0.09808314    -0.20100
F501        F  0.03153766  0.07877761  0.03622613    -0.19770
F502        F  0.18677191  0.01648506  0.12938236    -0.19820
F503        F  0.20185186  0.04604726  0.07922050    -0.20150
F504        F  0.17936474  0.01261354  0.04904825    -0.22820
C505        C  0.11116354  0.97661790  0.92518130    -0.05660
C506        C  0.07643842  0.97085172  0.91003991     0.00270
C507        C  0.07132808  0.95310559  0.87412502    -0.08300
C508        C  0.10129628  0.94226949  0.85334150    -0.05680
C509        C  0.13592090  0.94825967  0.86779427     0.00260
C510        C  0.14124137  0.96545557  0.90471817    -0.08210
C511        C  0.17824856  0.97116341  0.92377295     0.62170
H512        H  0.11446437  0.98973865  0.95378328     0.12860
H513        H  0.09790151  0.92925797  0.82453497     0.12870
C514        C  0.03507961  0.94713810  0.85350111     0.62400
F515        F  0.17715758  0.98690117  0.96252179    -0.22770
F516        F  0.19855400  0.98102807  0.88743002    -0.20100
F517        F  0.19455556  0.95083094  0.93943711    -0.19770
F518        F  0.02655872  0.96402340  0.81988626    -0.19820
F519        F  0.00952358  0.94642209  0.88970211    -0.20150
F520        F  0.03507881  0.92545467  0.83002247    -0.22820
C521        C  0.77275449  0.24072546  0.27872850    -0.05660
C522        C  0.74830754  0.22851989  0.24921415     0.00270
C523        C  0.72419655  0.24106705  0.21970014    -0.08300
C524        C  0.72534066  0.26578861  0.22081150    -0.05680
C525        C  0.74994353  0.27798612  0.25013928     0.00260
C526        C  0.77386468  0.26543122  0.27990165    -0.08210
C527        C  0.79992230  0.27818537  0.31325731     0.62170
H528        H  0.79091886  0.23069413  0.30096028     0.12860
H529        H  0.70718009  0.27582354  0.19858537     0.12870
C530        C  0.69782993  0.22828876  0.18684874     0.62400
F531        F  0.81963512  0.26273792  0.34091571    -0.22770
F532        F  0.78146888  0.29294937  0.34466691    -0.20100
F533        F  0.82335384  0.29132748  0.28590591    -0.19770
F534        F  0.67503141  0.21488091  0.21464322    -0.19820
F535        F  0.71601050  0.21376357  0.15468004    -0.20150
F536        F  0.67745812  0.24372643  0.16004015    -0.22820
C537        C  0.60246666  0.02364594  0.39314682    -0.05660
C538        C  0.57653944  0.03734607  0.41654229     0.00270
C539        C  0.57782391  0.06208296  0.41214548    -0.08300
C540        C  0.60503868  0.07205082  0.38388017    -0.05680
C541        C  0.63198524  0.05855441  0.36104150     0.00260
C542        C  0.63041804  0.03352543  0.36588142    -0.08210
C543        C  0.65703755  0.01662214  0.34287033     0.62170
H544        H  0.60065545  0.00476821  0.39684168     0.12860
H545        H  0.60504426  0.09083434  0.37959406     0.12870
C546        C  0.55043177  0.07809179  0.43639672     0.62400
F547        F  0.65224428  0.99376871  0.35832627    -0.22770
F548        F  0.69143905  0.02304892  0.35541733    -0.20100
F549        F  0.65254637  0.01632285  0.29292850    -0.19770
F550        F  0.55444322  0.07741565  0.48639370    -0.19820
F551        F  0.51634327  0.07093144  0.42380920    -0.20150
F552        F  0.55424718  0.10125808  0.42255000    -0.22820
C553        C  0.89609285  0.05273582  0.15023346    -0.05660
C554        C  0.86688172  0.06100315  0.12390222     0.00270
C555        C  0.86419495  0.05614701  0.07360682    -0.08300
C556        C  0.89247181  0.04441041  0.05034421    -0.05680
C557        C  0.92242169  0.03651318  0.07621999     0.00260
C558        C  0.92395942  0.04020187  0.12764596    -0.08210
C559        C  0.95367350  0.03219310  0.16130031     0.62170
H560        H  0.89716822  0.05619692  0.18912001     0.12860
H561        H  0.89112842  0.04094510  0.01152691     0.12870
C562        C  0.83116224  0.06289331  0.04515729     0.62400
F563        F  0.96797736  0.05157525  0.18521111    -0.22770
F564        F  0.93949875  0.01728194  0.19564046    -0.20100
F565        F  0.98115940  0.02057795  0.13816454    -0.19770
F566        F  0.82676702  0.08699717  0.04681141    -0.19820
F567        F  0.80155771  0.05227577  0.06536142    -0.20150
F568        F  0.83329825  0.05584145  0.99683656    -0.22820
loop_ 
_geom_bond_atom_site_label_1 
_geom_bond_atom_site_label_2 
_geom_bond_distance 
_geom_bond_site_symmetry_2 
_ccdc_geom_bond_type 
N1            N2   1.322       .  A
N1            C5   1.346       .  A
N1           Cu9   2.078       .  S
N2            C3   1.343       .  A
N2           Cu8   2.060       .  S
C3            C4   1.378       .  A
C3            H6   1.082       .  S
C4            C5   1.383       .  A
C4          C554   1.471       .  S
C5            H7   1.082       .  S
Cu8          N11   2.060       .  S
Cu9          N19   2.079       .  S
Cu10         N12   2.082       .  S
Cu10         N18   2.083       .  S
N11          N12   1.316       .  A
N11          C15   1.340       .  A
N12          C13   1.344       .  A
C13          C14   1.401       .  A
C13          H16   1.080       .  S
C14          C15   1.394       .  A
C14         C541   1.513       .  S
C15          H17   1.068       .  S
N18          N19   1.324       .  A
N18          C22   1.347       .  A
N19          C20   1.346       .  A
C20          C21   1.381       .  A
C20          H23   1.081       .  S
C21          C22   1.382       .  A
C21         C522   1.475       .  S
C22          H24   1.082       .  S
O25         Cu33   2.012   1_554  S
O25          C35   1.280       .  A
O26         Cu33   2.032   1_455  S
O26          C36   1.280   1_545  A
O27         Cu33   2.003       .  S
O27          C37   1.276   1_545  A
O28         Cu33   1.996   1_454  S
O28          C38   1.274       .  A
O29         Cu34   2.025   1_445  S
O29          C38   1.280       .  A
O30         Cu34   2.020   1_556  S
O30          C37   1.280       .  A
O31         Cu34   2.004   1_456  S
O31          C36   1.276       .  A
O32         Cu34   2.006   1_545  S
O32          C35   1.275       .  A
Cu33        Cu34   2.374   1_546  S
C35         C557   1.479       .  S
C36         C506   1.476       .  S
C37         C477   1.479       .  S
C38         C493   1.475       .  S
N39          N40   1.321       .  A
N39          C43   1.343       .  A
N39         Cu47   2.067       .  S
N40          C41   1.344       .  A
N40         Cu46   2.075       .  S
C41          C42   1.387       .  A
C41          H44   1.082       .  S
C42          C43   1.384       .  A
C42         C458   1.484       .  S
C43          H45   1.079       .  S
Cu46         N49   2.074       .  S
Cu47         N57   2.066       .  S
Cu48         N50   2.074       .  S
Cu48         N56   2.073       .  S
N49          N50   1.321       .  A
N49          C53   1.345       .  A
N50          C51   1.343       .  A
C51          C52   1.387       .  A
C51          H54   1.082       .  S
C52          C53   1.387       .  A
C52         C490   1.487       .  S
C53          H55   1.078       .  S
N56          N57   1.317       .  A
N56          C60   1.342       .  A
N57          C58   1.343       .  A
C58          C59   1.393       .  A
C58          H61   1.072       .  S
C59          C60   1.396       .  A
C59         C442   1.505       .  S
C60          H62   1.081       .  S
N63          N64   1.321       .  A
N63          C67   1.345       .  A
N63         Cu71   2.078       .  S
N64          C65   1.342       .  A
N64         Cu70   2.057       .  S
C65          C66   1.382       .  A
C65          H68   1.079       .  S
C66          C67   1.387       .  A
C66         C426   1.481       .  S
C67          H69   1.083       .  S
Cu70         N73   2.057       .  S
Cu71         N81   2.079       .  S
Cu72         N74   2.080       .  S
Cu72         N80   2.080       .  S
N73          N74   1.322       .  A
N73          C77   1.343       .  A
N74          C75   1.346       .  A
C75          C76   1.383       .  A
C75          H78   1.082       .  S
C76          C77   1.378       .  A
C76         C474   1.469       .  S
C77          H79   1.082       .  S
N80          N81   1.323       .  A
N80          C84   1.346       .  A
N81          C82   1.345       .  A
C82          C83   1.385       .  A
C82          H85   1.080       .  S
C83          C84   1.385       .  A
C83         C410   1.483       .  S
C84          H86   1.082       .  S
O87         Cu95   1.996       .  S
O87          C97   1.273       .  A
O88         Cu95   1.993   1_545  S
O88          C98   1.273       .  A
O89         Cu95   2.013   1_545  S
O89          C99   1.279       .  A
O90         Cu95   2.013       .  S
O90         C100   1.280       .  A
O91         Cu96   1.997   1_565  S
O91         C100   1.273       .  A
O92         Cu96   1.999       .  S
O92          C99   1.274       .  A
O93         Cu96   2.016       .  S
O93          C98   1.280       .  A
O94         Cu96   2.014   1_565  S
O94          C97   1.280       .  A
Cu95        Cu96   2.359   1_565  S
C97         C429   1.496       .  S
C98         C461   1.496       .  S
C99         C538   1.486       .  S
C100        C394   1.496       .  S
N101        N102   1.321       .  A
N101        C105   1.343       .  A
N101       Cu109   2.065       .  S
N102        C103   1.343       .  A
N102       Cu108   2.075       .  S
C103        C104   1.389       .  A
C103        H106   1.082       .  S
C104        C105   1.386       .  A
C104        C397   1.489       .  S
C105        H107   1.077       .  S
Cu108       N111   2.075       .  S
Cu109       N119   2.065       .  S
Cu110       N112   2.062       .  S
Cu110       N118   2.061       .  S
N111        N112   1.321       .  A
N111        C115   1.346       .  A
N112        C113   1.341       .  A
C113        C114   1.381       .  A
C113        H116   1.082       .  S
C114        C115   1.385       .  A
C114        C509   1.474       .  S
C115        H117   1.081       .  S
N118        N119   1.320       .  A
N118        C122   1.343       .  A
N119        C120   1.343       .  A
C120        C121   1.384       .  A
C120        H123   1.082       .  S
C121        C122   1.384       .  A
C121        C378   1.479       .  S
C122        H124   1.079       .  S
N125        N126   1.320       .  A
N125        C129   1.345       .  A
N125       Cu133   2.086       .  S
N126        C127   1.344       .  A
N126       Cu132   2.076       .  S
C127        C128   1.392       .  A
C127        H130   1.075       .  S
C128        C129   1.395       .  A
C128        C346   1.505       .  S
C129        H131   1.082       .  S
Cu132       N135   2.075       .  S
Cu133       N143   2.086       .  S
Cu134       N136   2.069       .  S
Cu134       N142   2.070       .  S
N135        N136   1.321       .  A
N135        C139   1.346       .  A
N136        C137   1.344       .  A
C137        C138   1.384       .  A
C137        H140   1.080       .  S
C138        C139   1.385       .  A
C138        C365   1.480       .  S
C139        H141   1.082       .  S
N142        N143   1.322       .  A
N142        C146   1.344       .  A
N143        C144   1.347       .  A
C144        C145   1.387       .  A
C144        H147   1.081       .  S
C145        C146   1.382       .  A
C145        C413   1.482       .  S
C146        H148   1.082       .  S
N149        N150   1.323       .  A
N149        C153   1.345       .  A
N149       Cu157   2.079       .  S
N150        C151   1.347       .  A
N150       Cu156   2.078       .  S
C151        C152   1.384       .  A
C151        H154   1.082       .  S
C152        C153   1.384       .  A
C152        C330   1.481       .  S
C153        H155   1.082       .  S
Cu156       N159   2.078       .  S
Cu157       N167   2.079       .  S
Cu158       N160   2.071       .  S
Cu158       N166   2.072       .  S
N159        N160   1.320       .  A
N159        C163   1.344       .  A
N160        C161   1.344       .  A
C161        C162   1.388       .  A
C161        H164   1.082       .  S
C162        C163   1.389       .  A
C162        C314   1.492       .  S
C163        H165   1.076       .  S
N166        N167   1.323       .  A
N166        C170   1.345       .  A
N167        C168   1.346       .  A
C168        C169   1.382       .  A
C168        H171   1.082       .  S
C169        C170   1.381       .  A
C169        C525   1.475       .  S
C170        H172   1.082       .  S
N173        N174   1.323       .  A
N173        C177   1.342       .  A
N173       Cu181   2.062       .  S
N174        C175   1.347       .  A
N174       Cu180   2.083       .  S
C175        C176   1.384       .  A
C175        H178   1.082       .  S
C176        C177   1.378       .  A
C176        C298   1.473       .  S
C177        H179   1.082       .  S
Cu180       N183   2.082       .  S
Cu181       N191   2.061       .  S
Cu182       N184   2.066       .  S
Cu182       N190   2.066       .  S
N183        N184   1.320       .  A
N183        C187   1.343       .  A
N184        C185   1.344       .  A
C185        C186   1.389       .  A
C185        H188   1.076       .  S
C186        C187   1.393       .  A
C186        C282   1.497       .  S
C187        H189   1.082       .  S
N190        N191   1.320       .  A
N190        C194   1.342       .  A
N191        C192   1.344       .  A
C192        C193   1.385       .  A
C192        H195   1.078       .  S
C193        C194   1.385       .  A
C193        C381   1.481       .  S
C194        H196   1.082       .  S
O197       Cu205   2.019       .  S
O197        C207   1.281       .  A
O198       Cu205   2.035   1_454  S
O198        C208   1.280       .  A
O199       Cu205   2.005   1_554  S
O199        C209   1.278       .  A
O200       Cu205   2.006   1_455  S
O200        C210   1.275       .  A
O201       Cu206   2.026   1_556  S
O201        C210   1.281       .  A
O202       Cu206   2.022   1_655  S
O202        C209   1.278       .  A
O203       Cu206   2.009       .  S
O203        C208   1.276       .  A
O204       Cu206   2.007   1_656  S
O204        C207   1.275       .  A
Cu205      Cu206   2.364   1_656  S
C207        C349   1.499       .  S
C208        C269   1.480       .  S
C209        C333   1.496       .  S
C210        C285   1.487       .  S
O211       Cu219   2.004       .  S
O211        C221   1.277       .  A
O212       Cu219   2.002       .  S
O212        C222   1.275       .  A
O213       Cu219   2.015       .  S
O213        C223   1.278       .  A
O214       Cu219   2.016       .  S
O214        C224   1.279       .  A
O215       Cu220   2.002       .  S
O215        C224   1.275       .  A
O216       Cu220   2.009       .  S
O216        C223   1.277       .  A
O217       Cu220   2.013       .  S
O217        C222   1.280       .  A
O218       Cu220   2.018       .  S
O218        C221   1.278       .  A
Cu219      Cu220   2.372       .  S
C221        C317   1.479       .  S
C222        C301   1.488       .  S
C223        C362   1.473       .  S
C224        C250   1.475       .  S
N225        N226   1.321       .  A
N225        C229   1.344       .  A
N225       Cu233   2.069       .  S
N226        C227   1.346       .  A
N226       Cu232   2.078       .  S
C227        C228   1.386       .  A
C227        H230   1.082       .  S
C228        C229   1.383       .  A
C228        C266   1.479       .  S
C229        H231   1.082       .  S
Cu232       N235   2.078       .  S
Cu233       N243   2.068       .  S
Cu234       N236   2.076       .  S
Cu234       N242   2.076       .  S
N235        N236   1.324       .  A
N235        C239   1.345       .  A
N236        C237   1.346       .  A
C237        C238   1.381       .  A
C237        H240   1.082       .  S
C238        C239   1.381       .  A
C238        C253   1.473       .  S
C239        H241   1.082       .  S
N242        N243   1.317       .  A
N242        C246   1.343       .  A
N243        C244   1.342       .  A
C244        C245   1.394       .  A
C244        H247   1.072       .  S
C245        C246   1.397       .  A
C245        C445   1.508       .  S
C246        H248   1.081       .  S
C249        C250   1.402       .  A
C249        C254   1.405       .  A
C249        H256   1.083       .  S
C250        C251   1.418       .  A
C251        C252   1.408       .  A
C251        C258   1.519       .  S
C252        C253   1.401       .  A
C252        H257   1.083       .  S
C253        C254   1.413       .  A
C254        C255   1.517       .  S
C255        F259   1.385       .  S
C255        F260   1.383       .  S
C255        F261   1.383       .  S
C258        F262   1.381       .  S
C258        F263   1.382       .  S
C258        F264   1.385       .  S
C265        C266   1.400       .  A
C265        C270   1.405       .  A
C265        H272   1.084       .  S
C266        C267   1.417       .  A
C267        C268   1.410       .  A
C267        C274   1.518       .  S
C268        C269   1.403       .  A
C268        H273   1.084       .  S
C269        C270   1.415       .  A
C270        C271   1.509       .  S
C271        F275   1.385       .  S
C271        F276   1.384       .  S
C271        F277   1.379       .  S
C274        F278   1.383       .  S
C274        F279   1.381       .  S
C274        F280   1.384       .  S
C281        C282   1.404       .  A
C281        C286   1.403       .  A
C281        H288   1.083       .  S
C282        C283   1.424       .  A
C283        C284   1.410       .  A
C283        C290   1.519       .  S
C284        C285   1.404       .  A
C284        H289   1.084       .  S
C285        C286   1.424       .  A
C286        C287   1.518       .  S
C287        F291   1.384       .  S
C287        F292   1.372       .  S
C287        F293   1.383       .  S
C290        F294   1.383       .  S
C290        F295   1.381       .  S
C290        F296   1.385       .  S
C297        C298   1.399       .  A
C297        C302   1.407       .  A
C297        H304   1.083       .  S
C298        C299   1.411       .  A
C299        C300   1.406       .  A
C299        C306   1.518       .  S
C300        C301   1.408       .  A
C300        H305   1.083       .  S
C301        C302   1.426       .  A
C302        C303   1.522       .  S
C303        F307   1.385       .  S
C303        F308   1.382       .  S
C303        F309   1.383       .  S
C306        F310   1.382       .  S
C306        F311   1.384       .  S
C306        F312   1.384       .  S
C313        C314   1.409       .  A
C313        C318   1.409       .  A
C313        H320   1.082       .  S
C314        C315   1.423       .  A
C315        C316   1.404       .  A
C315        C322   1.520       .  S
C316        C317   1.399       .  A
C316        H321   1.081       .  S
C317        C318   1.414       .  A
C318        C319   1.518       .  S
C319        F323   1.384       .  S
C319        F324   1.382       .  S
C319        F325   1.382       .  S
C322        F326   1.381       .  S
C322        F327   1.383       .  S
C322        F328   1.385       .  S
C329        C330   1.402       .  A
C329        C334   1.412       .  A
C329        H336   1.083       .  S
C330        C331   1.414       .  A
C331        C332   1.406       .  A
C331        C338   1.520       .  S
C332        C333   1.409       .  A
C332        H337   1.082       .  S
C333        C334   1.425       .  A
C334        C335   1.519       .  S
C335        F339   1.385       .  S
C335        F340   1.383       .  S
C335        F341   1.383       .  S
C338        F342   1.383       .  S
C338        F343   1.381       .  S
C338        F344   1.385   1_554  S
C345        C346   1.408       .  A
C345        C350   1.409       .  A
C345        H352   1.081       .  S
C346        C347   1.427       .  A
C347        C348   1.410       .  A
C347        C354   1.520       .  S
C348        C349   1.405       .  A
C348        H353   1.082       .  S
C349        C350   1.423       .  A
C350        C351   1.522       .  S
C351        F355   1.385       .  S
C351        F356   1.384       .  S
C351        F357   1.383   1_556  S
C354        F358   1.383       .  S
C354        F359   1.382       .  S
C354        F360   1.385       .  S
C361        C362   1.400       .  A
C361        C366   1.407       .  A
C361        H368   1.084       .  S
C362        C363   1.413       .  A
C363        C364   1.406       .  A
C363        C370   1.514       .  S
C364        C365   1.403       .  A
C364        H369   1.083       .  S
C365        C366   1.419       .  A
C366        C367   1.519       .  S
C367        F371   1.385       .  S
C367        F372   1.380       .  S
C367        F373   1.384       .  S
C370        F374   1.379       .  S
C370        F375   1.383       .  S
C370        F376   1.385       .  S
C377        C378   1.403       .  A
C377        C382   1.406       .  A
C377        H384   1.083       .  S
C378        C379   1.418       .  A
C379        C380   1.404       .  A
C379        C386   1.520       .  S
C380        C381   1.403       .  A
C380        H385   1.082       .  S
C381        C382   1.419       .  A
C382        C383   1.520       .  S
C383        F387   1.385       .  S
C383        F388   1.383       .  S
C383        F389   1.381       .  S
C386        F390   1.381       .  S
C386        F391   1.383       .  S
C386        F392   1.385       .  S
C393        C394   1.408       .  A
C393        C398   1.406       .  A
C393        H400   1.082       .  S
C394        C395   1.426       .  A
C395        C396   1.406       .  A
C395        C402   1.523   1_565  S
C396        C397   1.403       .  A
C396        H401   1.082       .  S
C397        C398   1.420       .  A
C398        C399   1.520       .  S
C399        F403   1.385       .  S
C399        F404   1.383       .  S
C399        F405   1.381       .  S
C402        F406   1.384       .  S
C402        F407   1.383       .  S
C402        F408   1.385       .  S
C409        C410   1.404       .  A
C409        C414   1.408       .  A
C409        H416   1.083       .  S
C410        C411   1.419       .  A
C411        C412   1.408       .  A
C411        C418   1.519       .  S
C412        C413   1.403       .  A
C412        H417   1.083       .  S
C413        C414   1.417       .  A
C414        C415   1.519       .  S
C415        F419   1.385       .  S
C415        F420   1.381       .  S
C415        F421   1.383       .  S
C418        F422   1.383       .  S
C418        F423   1.381       .  S
C418        F424   1.385       .  S
C425        C426   1.400       .  A
C425        C430   1.407       .  A
C425        H432   1.083       .  S
C426        C427   1.417       .  A
C427        C428   1.406       .  A
C427        C434   1.521       .  S
C428        C429   1.409       .  A
C428        H433   1.082       .  S
C429        C430   1.428       .  A
C430        C431   1.522       .  S
C431        F435   1.385       .  S
C431        F436   1.384       .  S
C431        F437   1.383       .  S
C434        F438   1.381       .  S
C434        F439   1.383       .  S
C434        F440   1.385       .  S
C441        C442   1.407       .  A
C441        C446   1.408       .  A
C441        H448   1.080       .  S
C442        C443   1.425       .  A
C443        C444   1.409       .  A
C443        C450   1.521       .  S
C444        C445   1.408       .  A
C444        H449   1.080       .  S
C445        C446   1.426       .  A
C446        C447   1.520       .  S
C447        F451   1.385       .  S
C447        F452   1.382       .  S
C447        F453   1.383       .  S
C450        F454   1.382       .  S
C450        F455   1.383       .  S
C450        F456   1.385       .  S
C457        C458   1.401       .  A
C457        C462   1.407       .  A
C457        H464   1.083       .  S
C458        C459   1.417       .  A
C459        C460   1.406       .  A
C459        C466   1.520       .  S
C460        C461   1.408       .  A
C460        H465   1.082       .  S
C461        C462   1.428       .  A
C462        C463   1.523       .  S
C463        F467   1.385   1_545  S
C463        F468   1.384   1_545  S
C463        F469   1.383   1_545  S
C466        F470   1.383       .  S
C466        F471   1.381       .  S
C466        F472   1.385       .  S
C473        C474   1.395       .  A
C473        C478   1.401       .  A
C473        H480   1.085       .  S
C474        C475   1.410       .  A
C475        C476   1.408       .  A
C475        C482   1.516       .  S
C476        C477   1.407       .  A
C476        H481   1.083       .  S
C477        C478   1.424       .  A
C478        C479   1.515       .  S
C479        F483   1.383       .  S
C479        F484   1.374       .  S
C479        F485   1.383       .  S
C482        F486   1.382       .  S
C482        F487   1.384       .  S
C482        F488   1.384       .  S
C489        C490   1.405       .  A
C489        C494   1.404       .  A
C489        H496   1.083       .  S
C490        C491   1.422       .  A
C491        C492   1.409       .  A
C491        C498   1.519       .  S
C492        C493   1.401       .  A
C492        H497   1.084       .  S
C493        C494   1.415       .  A
C494        C495   1.518       .  S
C495        F499   1.384       .  S
C495        F500   1.378       .  S
C495        F501   1.382       .  S
C498        F502   1.380       .  S
C498        F503   1.384       .  S
C498        F504   1.384       .  S
C505        C506   1.404       .  A
C505        C510   1.409       .  A
C505        H512   1.084       .  S
C506        C507   1.416       .  A
C507        C508   1.401       .  A
C507        C514   1.509       .  S
C508        C509   1.398       .  A
C508        H513   1.084       .  S
C509        C510   1.414       .  A
C510        C511   1.516       .  S
C511        F515   1.383       .  S
C511        F516   1.381       .  S
C511        F517   1.383       .  S
C514        F518   1.380       .  S
C514        F519   1.383       .  S
C514        F520   1.385       .  S
C521        C522   1.401       .  A
C521        C526   1.407       .  A
C521        H528   1.083       .  S
C522        C523   1.415       .  A
C523        C524   1.408       .  A
C523        C530   1.517       .  S
C524        C525   1.402       .  A
C524        H529   1.083       .  S
C525        C526   1.415       .  A
C526        C527   1.517       .  S
C527        F531   1.384       .  S
C527        F532   1.383       .  S
C527        F533   1.382       .  S
C530        F534   1.383       .  S
C530        F535   1.383       .  S
C530        F536   1.385       .  S
C537        C538   1.399       .  A
C537        C542   1.410       .  A
C537        H544   1.083       .  S
C538        C539   1.416       .  A
C539        C540   1.406       .  A
C539        C546   1.522       .  S
C540        C541   1.413       .  A
C540        H545   1.077       .  S
C541        C542   1.434       .  A
C542        C543   1.520       .  S
C543        F547   1.385   1_545  S
C543        F548   1.383       .  S
C543        F549   1.382       .  S
C546        F550   1.383       .  S
C546        F551   1.384       .  S
C546        F552   1.385       .  S
C553        C554   1.398       .  A
C553        C558   1.406       .  A
C553        H560   1.085       .  S
C554        C555   1.409       .  A
C555        C556   1.404       .  A
C555        C562   1.517       .  S
C556        C557   1.406       .  A
C556        H561   1.083       .  S
C557        C558   1.427       .  A
C558        C559   1.522       .  S
C559        F563   1.384       .  S
C559        F564   1.384       .  S
C559        F565   1.377       .  S
C562        F566   1.382       .  S
C562        F567   1.383       .  S
C562        F568   1.385   1_554  S
