geometry optimzed in LAMMPS
_audit_creation_date              2020-11-30 
_audit_creation_method            'lammps2cif' 
_symmetry_space_group_name_H-M    'P1' 
_symmetry_Int_Tables_number       1 
_symmetry_cell_setting            triclinic 
loop_ 
_symmetry_equiv_pos_as_xyz 
  x,y,z 
_cell_length_a                    31.834612629382093 
_cell_length_b                    34.91867002133358 
_cell_length_c                    37.53440018105505 
_cell_angle_alpha                 83.99369263575535 
_cell_angle_beta                  91.80337427568512 
_cell_angle_gamma                 90.72053559423047 
loop_ 
_atom_site_label 
_atom_site_type_symbol 
_atom_site_fract_x 
_atom_site_fract_y 
_atom_site_fract_z 
_atom_site_charge 
O1          O  0.45119710  0.99738489  0.37533486    -0.81440
O2          O  0.47474252  0.00695581  0.04999546    -0.66130
O3          O  0.47999626  0.02076699  0.44483996    -1.12730
C4          C  0.58315419  0.92670090  0.45920730     1.05450
O5          O  0.53840572  0.98397492  0.06521727    -0.79340
O6          O  0.57654664  0.01767830  0.00297296    -0.66920
Ni7        Ni  0.42810933  0.01986590  0.41671531     1.34870
C8          C  0.58217308  0.02835929  0.96989734     0.84180
O9          O  0.44038114  0.05788467  0.99723261    -0.79880
O10         O  0.39816975  0.04672384  0.45045425    -0.90150
C11         C  0.50312097  0.99618534  0.07415456     0.83760
O12         O  0.40993205  0.97067591  0.44044240    -0.68350
O13         O  0.59296038  0.94474345  0.98605836    -0.87640
C14         C  0.40651518  0.96333462  0.47439166     0.84590
C15         C  0.40677081  0.06410474  0.97803976     1.06160
H16         H  0.49475632  0.94613843  0.99931883     0.37960
O17         O  0.51054846  0.96962571  0.99338307    -1.10300
O18         O  0.56460909  0.01177315  0.44433975    -0.66950
Ni19       Ni  0.51566291  0.97793168  0.44144164     1.26350
O20         O  0.42813775  0.98095040  0.99671712    -0.67180
O21         O  0.55015251  0.93369736  0.43997909    -0.79470
C22         C  0.48860709  0.99236950  0.36524519     0.83970
O23         O  0.51885641  0.98741811  0.38877661    -0.66650
Ni24       Ni  0.56178132  0.96662461  0.02210388     1.27450
Ni25       Ni  0.47636102  0.01405733  0.99680601     1.26060
H26         H  0.49463012  0.04463712  0.43778732     0.38510
O27         O  0.45860630  0.00716066  0.12290475    -0.82320
O28         O  0.46831337  0.99893349  0.30034279    -0.66130
O29         O  0.48295844  0.02140500  0.19604355    -1.12730
C30         C  0.58579245  0.92743800  0.21093271     1.05450
O31         O  0.53438625  0.98432289  0.31614408    -0.79340
O32         O  0.57681928  0.01641639  0.25562396    -0.66920
Ni33       Ni  0.43342020  0.02451206  0.16499246     1.34870
C34         C  0.58523181  0.02649748  0.22296875     0.84180
O35         O  0.43844769  0.05355394  0.24952903    -0.79880
O36         O  0.40065267  0.04568873  0.19972172    -0.90150
C37         C  0.49718775  0.99171738  0.32490282     0.83760
O38         O  0.41575439  0.97353547  0.18243786    -0.68350
O39         O  0.59249837  0.94297103  0.23982946    -0.87640
C40         C  0.40898012  0.96158463  0.21507932     0.84590
C41         C  0.40600021  0.05987221  0.22933672     1.06160
H42         H  0.49538190  0.94381624  0.24806709     0.37960
O43         O  0.51054937  0.96787427  0.24343396    -1.10300
O44         O  0.56774455  0.01118196  0.19668374    -0.66950
Ni45       Ni  0.51842257  0.97828789  0.19177279     1.26350
O46         O  0.42653603  0.97656055  0.24157201    -0.67180
O47         O  0.55374666  0.93450916  0.19034289    -0.79470
C48         C  0.49499761  0.99745815  0.11434831     0.83970
O49         O  0.52358579  0.98862364  0.13888368    -0.66650
Ni50       Ni  0.55988732  0.96566888  0.27436507     1.27450
Ni51       Ni  0.47452551  0.01042398  0.24763881     1.26060
H52         H  0.49859293  0.04525116  0.19175432     0.38510
O53         O  0.74635135  0.19421085  0.03916331    -0.81440
O54         O  0.82052496  0.10629803  0.43135026    -0.66130
O55         O  0.80749827  0.15618091  0.01549219    -1.12730
C56         C  0.84860618  0.27016875  0.44620215     1.05450
O57         O  0.87675394  0.13891114  0.42376736    -0.79340
O58         O  0.90688443  0.18187517  0.47241099    -0.66920
Ni59       Ni  0.76166555  0.14156935  0.04563675     1.34870
C60         C  0.90295157  0.19658656  0.50149072     0.84180
O61         O  0.80648783  0.08025293  0.49856043    -0.79880
O62         O  0.77683336  0.08758668  0.05105355    -0.90150
C63         C  0.84349605  0.12620445  0.40996027     0.83760
O64         O  0.72007003  0.13097905  0.01149958    -0.68350
O65         O  0.87391391  0.24693591  0.43386592    -0.87640
C66         C  0.72064302  0.12710118  0.47855853     0.84590
C67         C  0.79304285  0.06686941  0.52894756     1.06160
H68         H  0.79873790  0.18928026  0.43379733     0.37960
O69         O  0.82115636  0.18259710  0.45118618    -1.10300
O70         O  0.86901396  0.21201455  0.00946595    -0.66950
Ni71       Ni  0.81124973  0.20886102  0.99140764     1.26350
O72         O  0.75388599  0.13106695  0.46039396    -0.67180
O73         O  0.81746997  0.25844543  0.96512246    -0.79470
C74         C  0.77412389  0.21415119  0.05348104     0.83970
O75         O  0.79755149  0.23402121  0.03236602    -0.66650
Ni76       Ni  0.87442861  0.19222836  0.42931847     1.27450
Ni77       Ni  0.81311366  0.13039518  0.47419646     1.26060
H78         H  0.83262545  0.15100181  0.03023200     0.38510
O79         O  0.74995341  0.19028491  0.28265930    -0.81440
O80         O  0.83638065  0.10080637  0.18618656    -0.66130
O81         O  0.81697735  0.15603216  0.26608380    -1.12730
C82         C  0.85309978  0.26764184  0.19307399     1.05450
O83         O  0.89082601  0.13605132  0.17816658    -0.79340
O84         O  0.91455873  0.18297340  0.22534004    -0.66920
Ni85       Ni  0.77233544  0.14047718  0.29659464     1.34870
C86         C  0.90868920  0.20018996  0.25273696     0.84180
O87         O  0.82210503  0.07902033  0.25502768    -0.79880
O88         O  0.79570787  0.08928703  0.30819588    -0.90150
C89         C  0.85920288  0.12053930  0.16439030     0.83760
O90         O  0.73343829  0.11975006  0.26481090    -0.68350
O91         O  0.88038290  0.24469629  0.18296842    -0.87640
C92         C  0.73430488  0.11540683  0.23195826     0.84590
C93         C  0.81235545  0.06751429  0.28706926     1.06160
H94         H  0.80885462  0.18278585  0.18279256     0.37960
O95         O  0.83081680  0.17865315  0.20108345    -1.10300
O96         O  0.87365133  0.21528781  0.25843342    -0.66950
Ni97       Ni  0.81699312  0.20713022  0.23898636     1.26350
O98         O  0.76645043  0.12380517  0.21310993    -0.67180
O99         O  0.82074151  0.25551582  0.21020051    -0.79470
C100        C  0.77144573  0.21566250  0.29672595     0.83970
O101        O  0.79818906  0.23379943  0.27730806    -0.66650
Ni102      Ni  0.88457082  0.18971863  0.18079880     1.27450
Ni103      Ni  0.82566269  0.12757927  0.22715658     1.26060
H104        H  0.84211263  0.15355204  0.28120672     0.38510
O105        O  0.10683820  0.13780180  0.45651315    -0.81440
O106        O  0.17149980  0.25028382  0.05893614    -0.66130
O107        O  0.15732048  0.18947059  0.48139736    -1.12730
C108        C  0.19209784  0.08384627  0.57028658     1.05450
O109        O  0.22653929  0.21583048  0.06954274    -0.79340
O110        O  0.25818204  0.14964411  0.05449640    -0.66920
Ni111      Ni  0.10543717  0.19271370  0.45440239     1.34870
C112        C  0.26058173  0.14199268  0.02262461     0.84180
O113        O  0.15396115  0.26699516  0.98971144    -0.79880
O114        O  0.10115148  0.24891159  0.45400354    -0.90150
C115        C  0.19956337  0.23718550  0.08109562     0.83760
O116        O  0.07040774  0.18443306  0.49371841    -0.68350
O117        O  0.20153573  0.10800079  0.09286405    -0.87640
C118        C  0.07006345  0.20219542  0.52119324     0.84590
C119        C  0.12249099  0.27496779  0.96857921     1.06160
H120        H  0.14323830  0.16410428  0.06099855     0.37960
O121        O  0.16868722  0.17020557  0.04813924    -1.10300
O122        O  0.22881804  0.14467916  0.50077334    -0.66950
Ni123      Ni  0.16851918  0.14013859  0.50939781     1.26350
O124        O  0.10231854  0.22017823  0.03221226    -0.67180
O125        O  0.17859170  0.09349621  0.53840552    -0.79470
C126        C  0.14007664  0.12471673  0.44531029     0.83970
O127        O  0.16579575  0.11086229  0.46899973    -0.66650
Ni128      Ni  0.21369297  0.16288704  0.08246357     1.27450
Ni129      Ni  0.16197015  0.22023509  0.01977325     1.26060
H130        H  0.18009230  0.19622254  0.46542783     0.38510
O131        O  0.10575604  0.14742015  0.20072121    -0.81440
O132        O  0.17715157  0.24508917  0.31424298    -0.66130
O133        O  0.15891066  0.19373073  0.23096375    -1.12730
C134        C  0.18605691  0.08078093  0.31356544     1.05450
O135        O  0.23117954  0.20918816  0.32075281    -0.79340
O136        O  0.25894654  0.14310200  0.29983830    -0.66920
Ni137      Ni  0.10698733  0.20140558  0.20405796     1.34870
C138        C  0.25877882  0.13808643  0.26715049     0.84180
O139        O  0.15889896  0.26947018  0.24606767    -0.79880
O140        O  0.10561681  0.25655962  0.20829456    -0.90150
C141        C  0.20340672  0.22716130  0.33517805     0.83760
O142        O  0.07195218  0.19051705  0.24301188    -0.68350
O143        O  0.20006652  0.10311133  0.33624657    -0.87640
C144        C  0.07344998  0.20457496  0.27253373     0.84590
C145        C  0.12801457  0.28006288  0.22511787     1.06160
H146        H  0.14487662  0.16150260  0.30920476     0.37960
O147        O  0.17020068  0.16784690  0.29623532    -1.10300
O148        O  0.22675354  0.14423630  0.24630060    -0.66950
Ni149      Ni  0.16729003  0.14182241  0.25484875     1.26350
O150        O  0.10654025  0.22019788  0.28465461    -0.67180
O151        O  0.17415018  0.09213343  0.28129752    -0.79470
C152        C  0.13916691  0.13647416  0.18825945     0.83970
O153        O  0.16343391  0.11805762  0.21073733    -0.66650
Ni154      Ni  0.21596789  0.15654026  0.32928960     1.27450
Ni155      Ni  0.16559711  0.22003985  0.27206002     1.26060
H156        H  0.18210151  0.20131943  0.21573459     0.38510
O157        O  0.24066409  0.79017864  0.09626087    -0.81440
O158        O  0.18232525  0.88976059  0.47101244    -0.66130
O159        O  0.18246126  0.83397933  0.06381288    -1.12730
C160        C  0.14309106  0.72694736  0.00497503     1.05450
O161        O  0.12293393  0.86265118  0.46471903    -0.79340
O162        O  0.08855143  0.81863158  0.51362467    -0.66920
Ni163      Ni  0.22752903  0.84274635  0.09681394     1.34870
C164        C  0.08521559  0.79606431  0.54157057     0.84180
O165        O  0.19289405  0.91111871  0.53811030    -0.79880
O166        O  0.21398094  0.89645467  0.09596266    -0.90150
C167        C  0.15668608  0.87413342  0.45068987     0.83760
O168        O  0.27219817  0.85668894  0.06601255    -0.68350
O169        O  0.11996584  0.75226223  0.48655916    -0.87640
C170        C  0.27460267  0.86237798  0.03237572     0.84590
C171        C  0.20398573  0.92069566  0.56913332     1.06160
H172        H  0.19660071  0.80562988  0.48732016     0.37960
O173        O  0.17366495  0.81252978  0.50159079    -1.10300
O174        O  0.11711333  0.77869269  0.05658520    -0.66950
Ni175      Ni  0.17754151  0.78287073  0.04690257     1.26350
O176        O  0.24333315  0.85785679  0.51131412    -0.67180
O177        O  0.17233325  0.73525404  0.02684198    -0.79470
C178        C  0.21138702  0.77197332  0.11237400     0.83970
O179        O  0.18581158  0.75464001  0.09331729    -0.66650
Ni180      Ni  0.12202760  0.80829863  0.47543787     1.27450
Ni181      Ni  0.18367765  0.86279333  0.51849419     1.26060
H182        H  0.15642928  0.84018285  0.07427375     0.38510
O183        O  0.24760162  0.78775429  0.34122676    -0.81440
O184        O  0.17188087  0.89155125  0.22194302    -0.66130
O185        O  0.18852184  0.83192954  0.31168208    -1.12730
C186        C  0.15484456  0.72314744  0.24655130     1.05450
O187        O  0.11852516  0.85516586  0.21713962    -0.79340
O188        O  0.08821542  0.79353521  0.25296430    -0.66920
Ni189      Ni  0.23784401  0.84140339  0.33958496     1.34870
C190        C  0.08870325  0.78694676  0.28664084     0.84180
O191        O  0.18375325  0.90908482  0.28894988    -0.79880
O192        O  0.22637657  0.89593863  0.33780949    -0.90150
C193        C  0.14816324  0.87375003  0.20205455     0.83760
O194        O  0.27856577  0.85112711  0.30387964    -0.68350
O195        O  0.14013655  0.74767861  0.22167317    -0.87640
C196        C  0.27466120  0.86475577  0.27150945     0.84590
C197        C  0.20333408  0.91882776  0.31684532     1.06160
H198        H  0.20220434  0.80650360  0.23733221     0.37960
O199        O  0.17690485  0.81132152  0.24949887    -1.10300
O200        O  0.12236789  0.78236898  0.30583898    -0.66950
Ni201      Ni  0.18161460  0.78126985  0.29428622     1.26350
O202        O  0.23897700  0.86789874  0.25553478    -0.67180
O203        O  0.17298584  0.73256064  0.27525115    -0.79470
C204        C  0.21835365  0.77050811  0.35860038     0.83970
O205        O  0.19139199  0.75359825  0.34042996    -0.66650
Ni206      Ni  0.12986487  0.80198061  0.21872165     1.27450
Ni207      Ni  0.18076922  0.86208014  0.26763522     1.26060
H208        H  0.16486610  0.83653392  0.32612977     0.38510
O209        O  0.88737747  0.84352746  0.43472913    -0.81440
O210        O  0.81915160  0.73805870  0.05335588    -0.66130
O211        O  0.82987074  0.79626920  0.46247538    -1.12730
C212        C  0.79369631  0.90322923  0.52569971     1.05450
O213        O  0.76175711  0.76858150  0.05451165    -0.79340
O214        O  0.72632239  0.82556758  0.01081597    -0.66920
Ni215      Ni  0.87897238  0.79004609  0.43545662     1.34870
C216        C  0.72904528  0.84208695  0.47931041     0.84180
O217        O  0.83915743  0.71777506  0.98861861    -0.79880
O218        O  0.87146705  0.73577981  0.43693212    -0.90150
C219        C  0.79379720  0.75453415  0.07158437     0.83760
O220        O  0.92034398  0.78272223  0.47240350    -0.68350
O221        O  0.77154195  0.87862866  0.04481619    -0.87640
C222        C  0.91813906  0.77573516  0.50590786     0.84590
C223        C  0.85895738  0.71001737  0.96102307     1.06160
H224        H  0.83915567  0.82297119  0.03929385     0.37960
O225        O  0.81590282  0.81657896  0.02375825    -1.10300
O226        O  0.76414284  0.84955034  0.46482639    -0.66950
Ni227      Ni  0.82276316  0.84703809  0.47984675     1.26350
O228        O  0.88386450  0.77129634  0.02212161    -0.67180
O229        O  0.81672038  0.89449483  0.50047962    -0.79470
C230        C  0.85713512  0.85893081  0.41671049     0.83970
O231        O  0.83170226  0.87617841  0.43414556    -0.66650
Ni232      Ni  0.76623482  0.82301073  0.04943697     1.27450
Ni233      Ni  0.82610294  0.76605479  0.00710625     1.26060
H234        H  0.80538174  0.78992732  0.44838946     0.38510
O235        O  0.89068961  0.84838481  0.18306479    -0.81440
O236        O  0.81794827  0.73946997  0.30409047    -0.66130
O237        O  0.83657268  0.79913026  0.21483042    -1.12730
C238        C  0.80602639  0.90530676  0.28291667     1.05450
O239        O  0.76303425  0.77429218  0.30301824    -0.79340
O240        O  0.73336190  0.84056090  0.26893903    -0.66920
Ni241      Ni  0.88853587  0.79405330  0.19133488     1.34870
C242        C  0.73489476  0.84882361  0.23545250     0.84180
O243        O  0.83867458  0.72085899  0.24001663    -0.79880
O244        O  0.88816408  0.73865071  0.19976007    -0.90150
C245        C  0.79191020  0.75646736  0.32128329     0.83760
O246        O  0.92421794  0.79875029  0.23164571    -0.68350
O247        O  0.78951201  0.88048396  0.30595564    -0.87640
C248        C  0.92118953  0.78520614  0.26396854     0.84590
C249        C  0.86679138  0.71316990  0.21848548     1.06160
H250        H  0.84723703  0.82517360  0.29048388     0.37960
O251        O  0.82260411  0.81923768  0.27634614    -1.10300
O252        O  0.76850580  0.84764036  0.21831530    -0.66950
Ni253      Ni  0.82721460  0.84934907  0.23197383     1.26350
O254        O  0.88779491  0.76935199  0.27647364    -0.67180
O255        O  0.81956929  0.89728378  0.25262922    -0.79470
C256        C  0.85804923  0.86093155  0.16642673     0.83970
O257        O  0.83273244  0.87714991  0.18502336    -0.66650
Ni258      Ni  0.77543627  0.82706787  0.30465920     1.27450
Ni259      Ni  0.82955595  0.76861289  0.25913703     1.26060
H260        H  0.81368661  0.79298986  0.19881950     0.38510
O261        O  0.01458299  0.53581899  0.36491700    -0.81440
O262        O  0.00066773  0.52405979  0.04157762    -0.66130
O263        O  0.02819104  0.51320249  0.44149331    -1.12730
C264        C  0.92393108  0.41694537  0.44928743     1.05450
O265        O  0.98980558  0.46221181  0.05885411    -0.79340
O266        O  0.01871539  0.42133394  0.00480507    -0.66920
Ni267      Ni  0.03213302  0.55916238  0.40839097     1.34870
C268        C  0.03226090  0.41645531  0.97403339     0.84180
O269        O  0.06087505  0.55403255  0.99728048    -0.79880
O270        O  0.05412732  0.58994475  0.44464952    -0.90150
C271        C  0.99535301  0.49656936  0.06674118     0.83760
O272        O  0.97580839  0.57276842  0.41754609    -0.68350
O273        O  0.93713379  0.41224956  0.98177956    -0.87640
C274        C  0.96131359  0.57882121  0.44771032     0.84590
C275        C  0.06848732  0.58440369  0.97677963     1.06160
H276        H  0.94288812  0.49883171  0.98282367     0.37960
O277        O  0.96928078  0.48548943  0.98272319    -1.10300
O278        O  0.01814926  0.43525483  0.44509657    -0.66950
Ni279      Ni  0.98182100  0.47921242  0.43298203     1.26350
O280        O  0.97721636  0.56314632  0.97746995    -0.67180
O281        O  0.93515635  0.44495464  0.42701150    -0.79470
C282        C  0.00383098  0.50240586  0.35691839     0.83970
O283        O  0.99412133  0.47572393  0.38181772    -0.66650
Ni284      Ni  0.96544223  0.44038571  0.01670851     1.27450
Ni285      Ni  0.01464071  0.51986460  0.99096548     1.26060
H286        H  0.05445601  0.49962323  0.44156868     0.38510
O287        O  0.00154606  0.53841756  0.11460490    -0.81440
O288        O  0.01270345  0.52115284  0.29191181    -0.66130
O289        O  0.02685533  0.51430259  0.18885240    -1.12730
C290        C  0.92831336  0.41442634  0.19981741     1.05450
O291        O  0.98930613  0.46207557  0.30913826    -0.79340
O292        O  0.02518197  0.42665255  0.25374956    -0.66920
Ni293      Ni  0.02380259  0.56122939  0.15711145     1.34870
C294        C  0.03720282  0.42063106  0.22263920     0.84180
O295        O  0.06787375  0.55263478  0.24183638    -0.79880
O296        O  0.04962838  0.59073750  0.19248726    -0.90150
C297        C  0.00206102  0.49496517  0.31695387     0.83760
O298        O  0.96906950  0.57307089  0.17300638    -0.68350
O299        O  0.94556736  0.40854165  0.23085164    -0.87640
C300        C  0.96177429  0.57879038  0.20532749     0.84590
C301        C  0.07308028  0.58304642  0.22029027     1.06160
H302        H  0.94598046  0.49899000  0.23519327     0.37960
O303        O  0.97189557  0.48527763  0.23352641    -1.10300
O304        O  0.01962157  0.43657803  0.19383592    -0.66950
Ni305      Ni  0.98128514  0.47944175  0.18299114     1.26350
O306        O  0.98269754  0.56209694  0.23189488    -0.67180
O307        O  0.93495952  0.44456371  0.17868189    -0.79470
C308        C  0.99636945  0.50398404  0.10661021     0.83970
O309        O  0.99167772  0.47620405  0.13163505    -0.66650
Ni310      Ni  0.96970340  0.43907817  0.26619981     1.27450
Ni311      Ni  0.01980174  0.51862774  0.23963132     1.26060
H312        H  0.05335475  0.50209819  0.18565572     0.38510
C313        C  0.90687662  0.65899803  0.24692096    -0.20850
C314        C  0.88008860  0.67307661  0.21857741    -0.07420
C315        C  0.87472394  0.65248534  0.18847033     0.13450
C316        C  0.90028594  0.62048027  0.18547035    -0.20910
C317        C  0.93037742  0.60820077  0.21247616    -0.07420
C318        C  0.93217020  0.62693648  0.24453880     0.13440
C319        C  0.96222058  0.61560954  0.27574743    -0.24260
H320        H  0.91033223  0.67507002  0.27008619     0.14720
H321        H  0.89738651  0.60560444  0.16156890     0.14750
C322        C  0.84154184  0.66398504  0.16010069    -0.24200
H323        H  0.95918118  0.63424295  0.29776515     0.04970
H324        H  0.99519496  0.61842493  0.26694178     0.08190
H325        H  0.95548438  0.58563873  0.28719906     0.08190
H326        H  0.84576535  0.69444826  0.14952276     0.08180
H327        H  0.81008155  0.66067223  0.17205467     0.08180
H328        H  0.84240410  0.64593728  0.13746360     0.04950
C329        C  0.88485438  0.66195805  0.42303606    -0.20850
C330        C  0.87252341  0.66987412  0.95716238    -0.07420
C331        C  0.88278925  0.64292015  0.48696111     0.13450
C332        C  0.90916788  0.61184800  0.48230931    -0.20910
C333        C  0.92626272  0.60699385  0.44886285    -0.07420
C334        C  0.91200173  0.63161816  0.41839259     0.13440
C335        C  0.92661725  0.62816990  0.38095522    -0.24260
H336        H  0.87592868  0.68171982  0.89988392     0.14720
H337        H  0.91839579  0.59246981  0.50560823     0.14750
C338        C  0.86824566  0.64753391  0.52412874    -0.24200
H339        H  0.91135519  0.64954133  0.36077087     0.04970
H340        H  0.91865061  0.59913779  0.37302982     0.08190
H341        H  0.96101755  0.63351518  0.87966853     0.08190
H342        H  0.83338225  0.64815410  0.52398126     0.08180
H343        H  0.88124934  0.67447883  0.03350319     0.08180
H344        H  0.87866973  0.62334231  0.54387826     0.04950
C345        C  0.79724830  0.82995211  0.38544258    -0.20850
C346        C  0.84067835  0.83735825  0.38727841    -0.07420
C347        C  0.86787781  0.81327762  0.37071460     0.13450
C348        C  0.85144664  0.78125322  0.35554452    -0.20910
C349        C  0.80789335  0.77490811  0.35263749    -0.07420
C350        C  0.78080331  0.79814162  0.37002919     0.13440
C351        C  0.73424542  0.79023184  0.37249060    -0.24260
H352        H  0.77603280  0.84664056  0.39906983     0.14720
H353        H  0.87285469  0.76326601  0.34304071     0.14750
C354        C  0.91467055  0.81997666  0.36938737    -0.24200
H355        H  0.72541046  0.78766786  0.40104589     0.04970
H356        H  0.72481821  0.76291503  0.36167846     0.08190
H357        H  0.71653028  0.81436243  0.35761564     0.08190
H358        H  0.93128244  0.79666886  0.38645749     0.08180
H359        H  0.92443119  0.84835517  0.37779483     0.08180
H360        H  0.92451689  0.81949432  0.34155666     0.04950
C361        C  0.78328205  0.80256091  0.11377687    -0.20850
C362        C  0.81047745  0.77554353  0.10161830    -0.07420
C363        C  0.85407372  0.77857804  0.11004846     0.13450
C364        C  0.86908271  0.81080305  0.12590240    -0.20910
C365        C  0.84185292  0.83836282  0.13720693    -0.07420
C366        C  0.79855210  0.83527531  0.12855368     0.13440
C367        C  0.76792087  0.86698448  0.13179763    -0.24260
H368        H  0.74978388  0.80066577  0.10787200     0.14720
H369        H  0.90253495  0.81269388  0.13200981     0.14750
C370        C  0.88598693  0.74817635  0.10479018    -0.24200
H371        H  0.74807350  0.87193012  0.10705044     0.04970
H372        H  0.78418830  0.89470412  0.13488008     0.08190
H373        H  0.74646976  0.85845682  0.15387969     0.08190
H374        H  0.91014237  0.76031152  0.08626505     0.08180
H375        H  0.87246637  0.72172492  0.09514172     0.08180
H376        H  0.90232113  0.73909616  0.13078699     0.04950
C377        C  0.14329893  0.67143165  0.20709184    -0.20850
C378        C  0.14718675  0.68174763  0.24212052    -0.07420
C379        C  0.13566746  0.65431774  0.27092218     0.13450
C380        C  0.11382393  0.62054609  0.26339054    -0.20910
C381        C  0.10475654  0.61304051  0.22792816    -0.07420
C382        C  0.12289551  0.63733336  0.19958297     0.13440
C383        C  0.12047126  0.62819830  0.16107506    -0.24260
H384        H  0.15404259  0.69140510  0.18508879     0.14720
H385        H  0.10175927  0.60114597  0.28521435     0.14750
C386        C  0.14499022  0.66071795  0.30950129    -0.24200
H387        H  0.14112304  0.64761073  0.14382688     0.04970
H388        H  0.08807380  0.63202593  0.14965924     0.08190
H389        H  0.13090760  0.59821765  0.15949149     0.08190
H390        H  0.12982518  0.68722869  0.31631016     0.08180
H391        H  0.17948151  0.66336798  0.31405113     0.08180
H392        H  0.13353098  0.63636744  0.32823439     0.04950
C393        C  0.02511116  0.82075709  0.29750872    -0.20850
C394        C  0.04677333  0.78576859  0.30219810    -0.07420
C395        C  0.02344814  0.75092482  0.30498529     0.13450
C396        C  0.97976009  0.75178833  0.29815458    -0.20910
C397        C  0.95979041  0.78659314  0.28648827    -0.07420
C398        C  0.98214327  0.82168568  0.28805737     0.13440
C399        C  0.96174999  0.86007398  0.27672675    -0.24260
H400        H  0.04306013  0.84746796  0.29528468     0.14720
H401        H  0.96244226  0.72497545  0.29708244     0.14750
C402        C  0.04523232  0.71275540  0.31076886    -0.24200
H403        H  0.98331505  0.88447174  0.28122136     0.04970
H404        H  0.93311693  0.86327693  0.29218399     0.08190
H405        H  0.95292096  0.86256870  0.24777105     0.08190
H406        H  0.06406460  0.71104392  0.33626962     0.08180
H407        H  0.06602065  0.70971330  0.28807455     0.08180
H408        H  0.02250041  0.68827770  0.31236155     0.04950
C409        C  0.12690047  0.63124143  0.96856683    -0.20850
C410        C  0.09401354  0.61581821  0.99000792    -0.07420
C411        C  0.08338342  0.63401282  0.02049605     0.13450
C412        C  0.10392885  0.66844118  0.02697880    -0.20910
C413        C  0.13274479  0.68607825  0.00288435    -0.07420
C414        C  0.14684972  0.66600872  0.97506134     0.13440
C415        C  0.18325927  0.68099204  0.95287785    -0.24260
H416        H  0.13606762  0.61662735  0.94595812     0.14720
H417        H  0.09546914  0.68280709  0.04991459     0.14750
C418        C  0.04874936  0.62010310  0.04533750    -0.24200
H419        H  0.18978113  0.66226825  0.93156659     0.04970
H420        H  0.21184965  0.68212263  0.97047321     0.08190
H421        H  0.17681451  0.71040521  0.44015596     0.08190
H422        H  0.03118212  0.59496515  0.03699752     0.08180
H423        H  0.02560076  0.64340233  0.54651869     0.08180
H424        H  0.06229557  0.61238004  0.07272941     0.04950
C425        C  0.14585935  0.82185434  0.41213508    -0.20850
C426        C  0.17288144  0.85066228  0.42364615    -0.07420
C427        C  0.21600319  0.84941117  0.41656840     0.13450
C428        C  0.23149690  0.81708631  0.40236564    -0.20910
C429        C  0.20423593  0.78877239  0.38996149    -0.07420
C430        C  0.16106010  0.78984979  0.39763793     0.13440
C431        C  0.12973437  0.75803893  0.39169391    -0.24260
H432        H  0.11242844  0.82280757  0.41667006     0.14720
H433        H  0.26466187  0.81655237  0.39666465     0.14750
C434        C  0.24477731  0.88368777  0.42000118    -0.24200
H435        H  0.11347793  0.74927047  0.41700654     0.04970
H436        H  0.14417785  0.73158402  0.38397604     0.08190
H437        H  0.10552407  0.76857283  0.37127672     0.08190
H438        H  0.25137214  0.88845036  0.44823793     0.08180
H439        H  0.22991103  0.90995666  0.40616411     0.08180
H440        H  0.27550249  0.88003222  0.40759527     0.04950
C441        C  0.20887516  0.84565731  0.17569075    -0.20850
C442        C  0.16633753  0.85568505  0.17263080    -0.07420
C443        C  0.13898604  0.83504889  0.15155410     0.13450
C444        C  0.15248744  0.80138403  0.13886841    -0.20910
C445        C  0.19495003  0.79091439  0.14207937    -0.07420
C446        C  0.22301315  0.81240125  0.16237759     0.13440
C447        C  0.26823793  0.80115320  0.16983313    -0.24260
H448        H  0.23048807  0.86145675  0.19141188     0.14720
H449        H  0.13055772  0.78603048  0.12278964     0.14750
C450        C  0.09557371  0.84899942  0.14138195    -0.24200
H451        H  0.27480970  0.79793337  0.19922770     0.04970
H452        H  0.28923600  0.82390462  0.15711594     0.08190
H453        H  0.27555439  0.77330449  0.15975070     0.08190
H454        H  0.08832450  0.87649184  0.15217386     0.08180
H455        H  0.07213367  0.82678699  0.15100969     0.08180
H456        H  0.09388890  0.85462520  0.11182517     0.04950
C457        C  0.96909303  0.80555011  0.04464361    -0.20850
C458        C  0.95786900  0.77399620  0.52644681    -0.07420
C459        C  0.98763663  0.74541579  0.52237072     0.13450
C460        C  0.02884297  0.75015640  0.53544912    -0.20910
C461        C  0.04176529  0.78403294  0.54992785    -0.07420
C462        C  0.01089765  0.81152298  0.05554306     0.13440
C463        C  0.02168901  0.84823120  0.07128433    -0.24260
H464        H  0.94573700  0.82727521  0.04756193     0.14720
H465        H  0.05228141  0.73018655  0.52909017     0.14750
C466        C  0.97678902  0.71141364  0.50197499    -0.24200
H467        H  0.99530577  0.86894750  0.06795406     0.04970
H468        H  0.04939791  0.86266539  0.05840088     0.08190
H469        H  0.02716246  0.84120191  0.10036611     0.08190
H470        H  0.96623088  0.72132694  0.47411375     0.08180
H471        H  0.95137789  0.69414956  0.51557202     0.08180
H472        H  0.00421765  0.69245155  0.50030488     0.04950
C473        C  0.08614739  0.37265280  0.25333050    -0.20850
C474        C  0.07014908  0.39085435  0.22068179    -0.07420
C475        C  0.08197214  0.37640988  0.18837404     0.13450
C476        C  0.10281963  0.34080923  0.19027776    -0.20910
C477        C  0.11446490  0.32069743  0.22336446    -0.07420
C478        C  0.10796245  0.33805380  0.25516452     0.13440
C479        C  0.12088477  0.31912379  0.29169025    -0.24260
H480        H  0.07945879  0.38427766  0.27818021     0.14720
H481        H  0.10936912  0.32824375  0.16586368     0.14750
C482        C  0.07399387  0.39819506  0.15194775    -0.24200
H483        H  0.11179013  0.33618626  0.31355884     0.04970
H484        H  0.15552930  0.31609203  0.29360705     0.08190
H485        H  0.10519269  0.29066289  0.29630511     0.08190
H486        H  0.08796567  0.42753148  0.15148114     0.08180
H487        H  0.04003956  0.40042647  0.14519499     0.08180
H488        H  0.08849041  0.38374953  0.13042693     0.04950
C489        C  0.15819663  0.97548993  0.31743862    -0.20850
C490        C  0.19809195  0.95908593  0.32449843    -0.07420
C491        C  0.23220770  0.98261391  0.33409456     0.13450
C492        C  0.22586115  0.02229749  0.33446036    -0.20910
C493        C  0.18699624  0.03898705  0.32366948    -0.07420
C494        C  0.15234221  0.01523383  0.31635699     0.13440
C495        C  0.10937554  0.03173731  0.30682347    -0.24260
H496        H  0.13186104  0.95728782  0.31078021     0.14720
H497        H  0.25238386  0.04087509  0.33977204     0.14750
C498        C  0.27597574  0.96691406  0.34071187    -0.24200
H499        H  0.08547890  0.00873905  0.30387697     0.04970
H500        H  0.10984835  0.05035260  0.28101981     0.08190
H501        H  0.09934192  0.04892551  0.32827966     0.08190
H502        H  0.28608376  0.95349503  0.31686522     0.08180
H503        H  0.27674461  0.94517315  0.36442850     0.08180
H504        H  0.29911568  0.98989696  0.34592176     0.04950
C505        C  0.11049320  0.33466119  0.99698966    -0.20850
C506        C  0.10690768  0.31545922  0.96580748    -0.07420
C507        C  0.08425916  0.33359634  0.43580305     0.13450
C508        C  0.06377402  0.36849399  0.43857143    -0.20910
C509        C  0.06307202  0.38509567  0.97110384    -0.07420
C510        C  0.08833775  0.36857968  0.00040167     0.13440
C511        C  0.09188311  0.38573681  0.03565928    -0.24260
H512        H  0.12805700  0.32137972  0.02015147     0.14720
H513        H  0.04584088  0.38150104  0.41555911     0.14750
C514        C  0.08075395  0.31645713  0.40087275    -0.24200
H515        H  0.11594867  0.37091168  0.05407197     0.04970
H516        H  0.06158769  0.38275993  0.04954593     0.08190
H517        H  0.10115666  0.41656960  0.03100447     0.08190
H518        H  0.06100749  0.29008448  0.40423986     0.08180
H519        H  0.11269319  0.31036617  0.39213317     0.08180
H520        H  0.06543256  0.33629067  0.37939340     0.04950
C521        C  0.12962654  0.17140754  0.39353215    -0.20850
C522        C  0.15665205  0.14458777  0.41229468    -0.07420
C523        C  0.20029971  0.14764962  0.40690564     0.13450
C524        C  0.21599081  0.18099306  0.38781895    -0.20910
C525        C  0.18870892  0.20849517  0.36962358    -0.07420
C526        C  0.14516055  0.20483879  0.37528242     0.13440
C527        C  0.11405244  0.23624560  0.36492155    -0.24260
H528        H  0.09593255  0.16890791  0.39695855     0.14720
H529        H  0.24941497  0.18300480  0.38304109     0.14750
C530        C  0.22961720  0.11434019  0.41735741    -0.24200
H531        H  0.09673181  0.24099788  0.38896504     0.04970
H532        H  0.09040407  0.22723456  0.34527857     0.08190
H533        H  0.12908153  0.26390475  0.35520986     0.08190
H534        H  0.21652815  0.08790344  0.40700779     0.08180
H535        H  0.23449442  0.10873746  0.44665264     0.08180
H536        H  0.26104951  0.11977685  0.40572952     0.04950
C537        C  0.21602680  0.20317363  0.13884679    -0.20850
C538        C  0.18845098  0.22864041  0.11875062    -0.07420
C539        C  0.14538336  0.22598822  0.12576683     0.13450
C540        C  0.12981204  0.19185368  0.14299209    -0.20910
C541        C  0.15696076  0.16287368  0.15894486    -0.07420
C542        C  0.20087944  0.16807548  0.15499087     0.13440
C543        C  0.23227437  0.13629354  0.16313465    -0.24260
H544        H  0.24952370  0.20612469  0.13451870     0.14720
H545        H  0.09610604  0.18922370  0.14609478     0.14750
C546        C  0.11513033  0.25793407  0.11375751    -0.24200
H547        H  0.25206430  0.13444803  0.13954391     0.04970
H548        H  0.21676408  0.10787107  0.16820484     0.08190
H549        H  0.25363607  0.14249750  0.18564654     0.08190
H550        H  0.09193210  0.24802937  0.09400868     0.08180
H551        H  0.13151010  0.28423965  0.10182641     0.08180
H552        H  0.09795509  0.26589642  0.13710839     0.04950
C553        C  0.22439693  0.02769366  0.55060649    -0.20850
C554        C  0.20180189  0.04249294  0.57745419    -0.07420
C555        C  0.18385121  0.01690595  0.60444286     0.13450
C556        C  0.18711178  0.97679657  0.60252439    -0.20910
C557        C  0.20647499  0.96232039  0.57341873    -0.07420
C558        C  0.22619842  0.98842155  0.54756591     0.13440
C559        C  0.24862216  0.97686600  0.51553917    -0.24260
H560        H  0.23879140  0.04743288  0.53009849     0.14720
H561        H  0.17235250  0.95683268  0.62253093     0.14750
C562        C  0.15967688  0.03178120  0.63380583    -0.24200
H563        H  0.23147417  0.98838305  0.49056163     0.04970
H564        H  0.25178659  0.94554225  0.51516697     0.08190
H565        H  0.28078962  0.98942824  0.01516906     0.08190
H566        H  0.13295740  0.04948774  0.62205169     0.08180
H567        H  0.18066455  0.04973936  0.14954384     0.08180
H568        H  0.14694314  0.00788867  0.65237318     0.04950
C569        C  0.89508733  0.32193674  0.16375883    -0.20850
C570        C  0.86257631  0.30983341  0.18714583    -0.07420
C571        C  0.84600900  0.33700818  0.20855799     0.13450
C572        C  0.86542396  0.37335043  0.20877177    -0.20910
C573        C  0.90098332  0.38320350  0.18865144    -0.07420
C574        C  0.91501702  0.35785103  0.16487692     0.13440
C575        C  0.95383841  0.36682018  0.14366021    -0.24260
H576        H  0.90770483  0.30192880  0.14675856     0.14720
H577        H  0.85497235  0.39308042  0.22706921     0.14750
C578        C  0.81021255  0.32754805  0.23340920    -0.24200
H579        H  0.96068212  0.34395649  0.12625923     0.04970
H580        H  0.98094525  0.36898577  0.16260637     0.08190
H581        H  0.94995328  0.39442885  0.12637998     0.08190
H582        H  0.81974880  0.30452563  0.25460431     0.08180
H583        H  0.78216691  0.31836207  0.21803011     0.08180
H584        H  0.80103842  0.35278256  0.24704659     0.04950
C585        C  0.01080674  0.23996653  0.28429354    -0.20850
C586        C  0.03293892  0.20527169  0.29021480    -0.07420
C587        C  0.01022375  0.17037361  0.29658892     0.13450
C588        C  0.96659981  0.17020179  0.28999552    -0.20910
C589        C  0.94567301  0.20413474  0.27679934    -0.07420
C590        C  0.96725812  0.23979177  0.27660353     0.13440
C591        C  0.94582660  0.27714388  0.26363286    -0.24260
H592        H  0.02834137  0.26675639  0.27961957     0.14720
H593        H  0.94979602  0.14293213  0.29075034     0.14750
C594        C  0.03278302  0.13285150  0.30646596    -0.24200
H595        H  0.96747796  0.30222376  0.26470522     0.04970
H596        H  0.91879770  0.28152344  0.28061777     0.08190
H597        H  0.93447851  0.27660232  0.23544705     0.08190
H598        H  0.05150740  0.13449665  0.33173146     0.08180
H599        H  0.05417494  0.12685070  0.28497580     0.08180
H600        H  0.01039498  0.10824740  0.31061858     0.04950
C601        C  0.78242431  0.00460564  0.31122661    -0.20850
C602        C  0.81721778  0.02564619  0.29744876    -0.07420
C603        C  0.85123271  0.00553447  0.28486511     0.13450
C604        C  0.84716940  0.96596610  0.28195067    -0.20910
C605        C  0.81031927  0.94568749  0.29171747    -0.07420
C606        C  0.77835119  0.96482753  0.30830660     0.13440
C607        C  0.73856452  0.94434814  0.32054619    -0.24260
H608        H  0.75646429  0.01993903  0.32099823     0.14720
H609        H  0.87249149  0.95096048  0.27083683     0.14750
C610        C  0.89180373  0.02569559  0.27396167    -0.24200
H611        H  0.71626154  0.96417968  0.33126091     0.04970
H612        H  0.74606050  0.92120458  0.34228195     0.08190
H613        H  0.72258535  0.93175266  0.29769772     0.08190
H614        H  0.90419552  0.04186964  0.29603399     0.08180
H615        H  0.88708581  0.04572886  0.24929622     0.08180
H616        H  0.91617664  0.00486668  0.26826017     0.04950
C617        C  0.88897905  0.32460430  0.41469583    -0.20850
C618        C  0.85839040  0.31229043  0.43995956    -0.07420
C619        C  0.84270408  0.33962748  0.96162147     0.13450
C620        C  0.86137407  0.37633559  0.96022034    -0.20910
C621        C  0.89539371  0.38651089  0.43827973    -0.07420
C622        C  0.90781042  0.36126651  0.41377321     0.13440
C623        C  0.94324959  0.37166167  0.38879727    -0.24260
H624        H  0.90060086  0.30456553  0.39726113     0.14720
H625        H  0.85191911  0.39614724  0.97882941     0.14750
C626        C  0.80872716  0.33012292  0.98833533    -0.24200
H627        H  0.94948816  0.34834230  0.37173380     0.04970
H628        H  0.97241038  0.37689636  0.40453227     0.08190
H629        H  0.93521486  0.39810339  0.37094775     0.08190
H630        H  0.81968697  0.30736720  0.00928798     0.08180
H631        H  0.77976583  0.32056519  0.47443693     0.08180
H632        H  0.80035594  0.35544934  0.00218243     0.04950
C633        C  0.84383928  0.18466047  0.36696377    -0.20850
C634        C  0.82259620  0.15066393  0.38013125    -0.07420
C635        C  0.77904939  0.14699110  0.37157336     0.13450
C636        C  0.75808076  0.17805711  0.35282731    -0.20910
C637        C  0.78100472  0.20855562  0.33538015    -0.07420
C638        C  0.82262521  0.21475306  0.34713792     0.13440
C639        C  0.84556301  0.25224752  0.33790884    -0.24260
H640        H  0.87695029  0.18870705  0.37319010     0.14720
H641        H  0.72526030  0.17427029  0.34507927     0.14750
C642        C  0.75384610  0.11031705  0.37850224    -0.24200
H643        H  0.85713410  0.26362312  0.36290780     0.04970
H644        H  0.82480856  0.27445518  0.32352824     0.08190
H645        H  0.87279685  0.24749624  0.32129557     0.08190
H646        H  0.72824131  0.11536001  0.39654195     0.08180
H647        H  0.77263208  0.08504905  0.38927112     0.08180
H648        H  0.73894269  0.10278290  0.35298871     0.04950
C649        C  0.85781565  0.17632005  0.11807012    -0.20850
C650        C  0.83833358  0.14202408  0.13273735    -0.07420
C651        C  0.79567308  0.13523693  0.12358894     0.13450
C652        C  0.77270333  0.16454066  0.10427869    -0.20910
C653        C  0.79258165  0.19778887  0.08823030    -0.07420
C654        C  0.83493772  0.20517061  0.09781273     0.13440
C655        C  0.85645105  0.24352272  0.08857543    -0.24260
H656        H  0.89062060  0.18200103  0.12434577     0.14720
H657        H  0.73979020  0.15922260  0.09799081     0.14750
C658        C  0.77462578  0.09651682  0.13144598    -0.24200
H659        H  0.87004945  0.25394872  0.11334863     0.04970
H660        H  0.83453806  0.26615295  0.07680029     0.08190
H661        H  0.88236409  0.24044025  0.07008667     0.08190
H662        H  0.76666898  0.09175311  0.15971531     0.08180
H663        H  0.79549584  0.07333052  0.12451650     0.08180
H664        H  0.74459210  0.09447799  0.11583874     0.04950
C665        C  0.96062476  0.23445513  0.02607664    -0.20850
C666        C  0.94104735  0.19844807  0.52469147    -0.07420
C667        C  0.96378747  0.16481853  0.53632932     0.13450
C668        C  0.00722092  0.16771454  0.54351442    -0.20910
C669        C  0.02845980  0.20328427  0.53757770    -0.07420
C670        C  0.00437381  0.23729602  0.03195812     0.13440
C671        C  0.02507119  0.27632838  0.02692744    -0.24260
H672        H  0.94280025  0.26027090  0.01766657     0.14720
H673        H  0.02547145  0.14158076  0.54847880     0.14750
C674        C  0.94273696  0.12575057  0.53867675    -0.24200
H675        H  0.00168283  0.29985256  0.02294514     0.04970
H676        H  0.04440127  0.27814832  0.00287573     0.08190
H677        H  0.04513433  0.28103843  0.05077717     0.08190
H678        H  0.93048319  0.11943326  0.51189266     0.08180
H679        H  0.91624721  0.12512523  0.55729680     0.08180
H680        H  0.96488296  0.10251113  0.54883371     0.04950
C681        C  0.75734040  0.00373729  0.04150832    -0.20850
C682        C  0.79505972  0.02463895  0.53703689    -0.07420
C683        C  0.83272638  0.00479753  0.53281181     0.13450
C684        C  0.83134348  0.96490178  0.53100456    -0.20910
C685        C  0.79324878  0.94420822  0.53295367    -0.07420
C686        C  0.75582709  0.96373289  0.03923002     0.13440
C687        C  0.71381908  0.94331353  0.04088456    -0.24260
H688        H  0.72846013  0.01919711  0.04413377     0.14720
H689        H  0.86012046  0.94989683  0.52688475     0.14750
C690        C  0.87445733  0.02570865  0.52971924    -0.24200
H691        H  0.68773992  0.96349447  0.04377821     0.04970
H692        H  0.71353518  0.92115700  0.06430042     0.08190
H693        H  0.70755167  0.92948579  0.01588690     0.08190
H694        H  0.88013418  0.04195015  0.55334126     0.08180
H695        H  0.87488745  0.04596308  0.50492051     0.08180
H696        H  0.90088948  0.00544070  0.52863151     0.04950
C697        C  0.65666437  0.91989413  0.19078319    -0.20850
C698        C  0.61905082  0.90183531  0.20160029    -0.07420
C699        C  0.61947859  0.86292917  0.21617912     0.13450
C700        C  0.65816149  0.84411473  0.22282751    -0.20910
C701        C  0.69623842  0.86409961  0.21669527    -0.07420
C702        C  0.69540676  0.90238250  0.19993945     0.13440
C703        C  0.73427574  0.92751914  0.19772922    -0.24260
H704        H  0.65597674  0.94997634  0.18020848     0.14720
H705        H  0.65881142  0.81499852  0.23606596     0.14750
C706        C  0.57939026  0.84246026  0.22747298    -0.24200
H707        H  0.72819177  0.95562080  0.18182373     0.04970
H708        H  0.75982302  0.91387550  0.18482143     0.08190
H709        H  0.74520337  0.93277064  0.22516473     0.08190
H710        H  0.55735415  0.84231778  0.20396696     0.08180
H711        H  0.56448875  0.85737468  0.24846867     0.08180
H712        H  0.58517016  0.81215106  0.23850436     0.04950
C713        C  0.66020623  0.03515799  0.21277606    -0.20850
C714        C  0.62144477  0.05259363  0.21594507    -0.07420
C715        C  0.61985561  0.09260007  0.21810119     0.13450
C716        C  0.65766524  0.11412626  0.21808591    -0.20910
C717        C  0.69692936  0.09609845  0.21740236    -0.07420
C718        C  0.69792240  0.05593874  0.21490834     0.13440
C719        C  0.73813304  0.03356711  0.22034557    -0.24260
H720        H  0.66113750  0.00419652  0.21252670     0.14720
H721        H  0.65678676  0.14448369  0.22176172     0.14750
C722        C  0.57858610  0.11202033  0.22207085    -0.24200
H723        H  0.73255553  0.00221760  0.22083778     0.04970
H724        H  0.75228798  0.03830173  0.24664887     0.08190
H725        H  0.76062302  0.04226166  0.19916830     0.08190
H726        H  0.56356469  0.09945834  0.24699192     0.08180
H727        H  0.55738967  0.10776004  0.19872747     0.08180
H728        H  0.58278011  0.14345122  0.22351923     0.04950
C729        C  0.33641216  0.13621782  0.26202449    -0.20850
C730        C  0.29655107  0.12058297  0.25442174    -0.07420
C731        C  0.29376867  0.08404010  0.24142707     0.13450
C732        C  0.33037609  0.06567419  0.23377347    -0.20910
C733        C  0.37012260  0.08131340  0.24065456    -0.07420
C734        C  0.37345745  0.11671368  0.25559246     0.13440
C735        C  0.41557849  0.13401049  0.26434637    -0.24260
H736        H  0.33846552  0.16327823  0.27376418     0.14720
H737        H  0.32799860  0.03775451  0.22361140     0.14750
C738        C  0.25304117  0.06188864  0.23912461    -0.24200
H739        H  0.41231531  0.16223008  0.27511840     0.04970
H740        H  0.43436099  0.13851270  0.23980899     0.08190
H741        H  0.43266430  0.11443953  0.28493202     0.08190
H742        H  0.22945816  0.07852452  0.22225927     0.08180
H743        H  0.24108048  0.05522653  0.26631980     0.08180
H744        H  0.25696970  0.03408171  0.22773495     0.04950
C745        C  0.38565451  0.90310762  0.25282539    -0.20850
C746        C  0.37749601  0.93053436  0.22345140    -0.07420
C747        C  0.33731911  0.93113375  0.20627581     0.13450
C748        C  0.30543799  0.90684945  0.22101757    -0.20910
C749        C  0.31233308  0.88164429  0.25248549    -0.07420
C750        C  0.35392472  0.87842113  0.26741841     0.13440
C751        C  0.36545426  0.85007619  0.29925607    -0.24260
H752        H  0.41676311  0.90222840  0.26549756     0.14720
H753        H  0.27410780  0.90986830  0.20912963     0.14750
C754        C  0.32678142  0.95912504  0.17390977    -0.24200
H755        H  0.39995935  0.84920498  0.30464968     0.04970
H756        H  0.35497993  0.82066451  0.29406584     0.08190
H757        H  0.35098824  0.85839420  0.32379025     0.08190
H758        H  0.34669525  0.95341716  0.15133251     0.08180
H759        H  0.33210665  0.98912581  0.18037009     0.08180
H760        H  0.29344001  0.95647393  0.16475973     0.04950
C761        C  0.65124074  0.84007298  0.97322945    -0.20850
C762        C  0.68936070  0.85686540  0.46101058    -0.07420
C763        C  0.68785369  0.89279433  0.43922575     0.13450
C764        C  0.64916895  0.91137418  0.43254973    -0.20910
C765        C  0.61332267  0.89781485  0.45042551    -0.07420
C766        C  0.61359700  0.86084630  0.96941777     0.13440
C767        C  0.57495256  0.84469072  0.98794236    -0.24260
H768        H  0.65173213  0.81250230  0.98945446     0.14720
H769        H  0.64799149  0.93912382  0.41689931     0.14750
C770        C  0.72670694  0.91470143  0.42663488    -0.24200
H771        H  0.58041115  0.81537753  0.00173295     0.04970
H772        H  0.54877893  0.84292084  0.96791017     0.08190
H773        H  0.56559424  0.86357499  0.00831435     0.08190
H774        H  0.74373826  0.89838546  0.40818971     0.08180
H775        H  0.74733685  0.92045293  0.44990265     0.08180
H776        H  0.71903994  0.94301308  0.41167916     0.04950
C777        C  0.60802523  0.09536271  0.47277590    -0.20850
C778        C  0.61372001  0.05890968  0.96130855    -0.07420
C779        C  0.65260865  0.05000372  0.94730964     0.13450
C780        C  0.68624376  0.07596789  0.94866934    -0.20910
C781        C  0.68192441  0.11096155  0.46325693    -0.07420
C782        C  0.64164941  0.12180297  0.47351689     0.13440
C783        C  0.63443436  0.16053603  0.48653976    -0.24260
H784        H  0.57789837  0.10227972  0.48304418     0.14720
H785        H  0.71725462  0.06673045  0.94227705     0.14750
C786        C  0.66013211  0.01152342  0.93432501    -0.24200
H787        H  0.60067622  0.16494860  0.49137441     0.04970
H788        H  0.64469138  0.18367223  0.46600046     0.08190
H789        H  0.65205496  0.16328451  0.01209573     0.08190
H790        H  0.63767024  0.00715161  0.41186690     0.08180
H791        H  0.65594712  0.98857262  0.95672017     0.08180
H792        H  0.69245022  0.00924522  0.92447117     0.04950
C793        C  0.36379933  0.08637686  0.02557584    -0.20850
C794        C  0.37392807  0.08988866  0.98942232    -0.07420
C795        C  0.34935578  0.11446541  0.96463041     0.13450
C796        C  0.31391756  0.13286046  0.97639630    -0.20910
C797        C  0.30175302  0.12690484  0.01214327    -0.07420
C798        C  0.32804375  0.10394956  0.03732467     0.13440
C799        C  0.31807369  0.09575151  0.07652030    -0.24260
H800        H  0.38270696  0.06781077  0.04455030     0.14720
H801        H  0.29514804  0.15147574  0.95742293     0.14750
C802        C  0.36055110  0.12188424  0.92577671    -0.24200
H803        H  0.34086432  0.07561529  0.09129730     0.04970
H804        H  0.28648712  0.08225231  0.57935747     0.08190
H805        H  0.31949344  0.12279099  0.08965331     0.08190
H806        H  0.35653802  0.09523924  0.41230425     0.08180
H807        H  0.39359658  0.13224333  0.92377716     0.08180
H808        H  0.34011733  0.14414132  0.91101690     0.04950
C809        C  0.36374159  0.90202578  0.47267120    -0.20850
C810        C  0.37502047  0.93484293  0.48994274    -0.07420
C811        C  0.35608526  0.94008183  0.02294908     0.13450
C812        C  0.32623146  0.91357205  0.03672059    -0.20910
C813        C  0.31308870  0.88229855  0.01862176    -0.07420
C814        C  0.33353208  0.87513465  0.48719470     0.13440
C815        C  0.32623239  0.83785862  0.47101493    -0.24260
H816        H  0.37923871  0.89695695  0.44833092     0.14720
H817        H  0.31081180  0.91887729  0.06108742     0.14750
C818        C  0.36465402  0.97464839  0.04341546    -0.24200
H819        H  0.34432807  0.83689675  0.44631038     0.04970
H820        H  0.29259171  0.83350278  0.46426048     0.08190
H821        H  0.33646201  0.81355611  0.99069709     0.08190
H822        H  0.35966994  0.00158084  0.52539455     0.08180
H823        H  0.39712412  0.97367493  0.05501881     0.08180
H824        H  0.34338616  0.97557622  0.06622056     0.04950
O825        O  0.45119646  0.99738372  0.87533510    -0.81440
O826        O  0.47474229  0.00695633  0.54999532    -0.66130
O827        O  0.47999595  0.02076557  0.94484009    -1.12730
C828        C  0.58315396  0.92669993  0.95920781     1.05450
O829        O  0.53840592  0.98397632  0.56521701    -0.79340
O830        O  0.57654816  0.01767873  0.50297298    -0.66920
Ni831      Ni  0.42810880  0.01986434  0.91671583     1.34870
C832        C  0.58217444  0.02836004  0.46989741     0.84180
O833        O  0.44038055  0.05788549  0.49723267    -0.79880
O834        O  0.39816938  0.04672208  0.95045507    -0.90150
C835        C  0.50312094  0.99618621  0.57415438     0.83760
O836        O  0.40993226  0.97067415  0.94044312    -0.68350
O837        O  0.59296026  0.94474332  0.48605865    -0.87640
C838        C  0.40651554  0.96333306  0.97439242     0.84590
C839        C  0.40677053  0.06410592  0.47803939     1.06160
H840        H  0.49475659  0.94613964  0.49931819     0.37960
O841        O  0.51054875  0.96962697  0.49338272    -1.10300
O842        O  0.56460845  0.01177169  0.94433981    -0.66950
Ni843      Ni  0.51566239  0.97793010  0.94144196     1.26350
O844        O  0.42813781  0.98095129  0.49671660    -0.67180
O845        O  0.55015198  0.93369568  0.93997980    -0.79470
C846        C  0.48860640  0.99236810  0.86524540     0.83970
O847        O  0.51885570  0.98741625  0.88877684    -0.66650
Ni848      Ni  0.56178141  0.96662534  0.52210384     1.27450
Ni849      Ni  0.47636095  0.01405836  0.49680587     1.26060
H850        H  0.49462979  0.04463564  0.93778719     0.38510
O851        O  0.45860616  0.00716109  0.62290462    -0.82320
O852        O  0.46831279  0.99893281  0.80034286    -0.66130
O853        O  0.48295802  0.02140506  0.69604362    -1.12730
C854        C  0.58579290  0.92743892  0.71093226     1.05450
O855        O  0.53438560  0.98432189  0.81614419    -0.79340
O856        O  0.57681806  0.01641690  0.75562421    -0.66920
Ni857      Ni  0.43341996  0.02451242  0.66499231     1.34870
C858        C  0.58523073  0.02649824  0.72296907     0.84180
O859        O  0.43844698  0.05355349  0.74952927    -0.79880
O860        O  0.40065237  0.04568903  0.69972155    -0.90150
C861        C  0.49718710  0.99171636  0.82490294     0.83760
O862        O  0.41575380  0.97353586  0.68243741    -0.68350
O863        O  0.59249867  0.94297208  0.73982896    -0.87640
C864        C  0.40897955  0.96158475  0.71507881     0.84590
C865        C  0.40599969  0.05987209  0.72933678     1.06160
H866        H  0.49538174  0.94381602  0.74806677     0.37960
O867        O  0.51054909  0.96787413  0.74343378    -1.10300
O868        O  0.56774406  0.01118253  0.69668392    -0.66950
Ni869      Ni  0.51842240  0.97828817  0.69177264     1.26350
O870        O  0.42653563  0.97656025  0.74157167    -0.67180
O871        O  0.55374689  0.93450969  0.69034258    -0.79470
C872        C  0.49499755  0.99745881  0.61434816     0.83970
O873        O  0.52358573  0.98862434  0.63888354    -0.66650
Ni874      Ni  0.55988707  0.96566894  0.77436487     1.27450
Ni875      Ni  0.47452500  0.01042368  0.74763884     1.26060
H876        H  0.49859244  0.04525129  0.69175460     0.38510
O877        O  0.74635076  0.19421260  0.53916317    -0.81440
O878        O  0.82052083  0.10629698  0.93134781    -0.66130
O879        O  0.80749891  0.15618304  0.51549349    -1.12730
C880        C  0.84860662  0.27016652  0.94620155     1.05450
O881        O  0.87675070  0.13890875  0.92376498    -0.79340
O882        O  0.90688297  0.18187119  0.97240922    -0.66920
Ni883      Ni  0.76166553  0.14157123  0.54563730     1.34870
C884        C  0.90295102  0.19658261  0.00148904     0.84180
O885        O  0.80648475  0.08025113  0.99855817    -0.79880
O886        O  0.77683360  0.08758853  0.55105460    -0.90150
C887        C  0.84349219  0.12620324  0.90995791     0.83760
O888        O  0.72007094  0.13098060  0.51149957    -0.68350
O889        O  0.87391385  0.24693332  0.93386517    -0.87640
C890        C  0.72064112  0.12710059  0.97855828     0.84590
C891        C  0.79304129  0.06686759  0.02894583     1.06160
H892        H  0.79873632  0.18927941  0.93379635     0.37960
O893        O  0.82115487  0.18259553  0.95118492    -1.10300
O894        O  0.86901384  0.21201755  0.50946738    -0.66950
Ni895      Ni  0.81124990  0.20886298  0.49140846     1.26350
O896        O  0.75388350  0.13106691  0.96039304    -0.67180
O897        O  0.81746958  0.25844729  0.46512295    -0.79470
C898        C  0.77412265  0.21415338  0.55348116     0.83970
O899        O  0.79755045  0.23402348  0.53236638    -0.66650
Ni900      Ni  0.87442704  0.19222589  0.92931694     1.27450
Ni901      Ni  0.81311132  0.13039355  0.97419465     1.26060
H902        H  0.83262581  0.15100453  0.53023382     0.38510
O903        O  0.74995236  0.19028662  0.78265925    -0.81440
O904        O  0.83637800  0.10080779  0.68618627    -0.66130
O905        O  0.81697604  0.15603360  0.76608378    -1.12730
C906        C  0.85309868  0.26764305  0.69307376     1.05450
O907        O  0.89082374  0.13605226  0.67816630    -0.79340
O908        O  0.91455717  0.18297415  0.72533969    -0.66920
Ni909      Ni  0.77233424  0.14047884  0.79659480     1.34870
C910        C  0.90868802  0.20019089  0.75273655     0.84180
O911        O  0.82210290  0.07902171  0.75502757    -0.79880
O912        O  0.79570647  0.08928854  0.80819605    -0.90150
C913        C  0.85920038  0.12054059  0.66439003     0.83760
O914        O  0.73343677  0.11975168  0.76481139    -0.68350
O915        O  0.88038167  0.24469735  0.68296823    -0.87640
C916        C  0.73430305  0.11540861  0.73195872     0.84590
C917        C  0.81235366  0.06751571  0.78706926     1.06160
H918        H  0.80885287  0.18278741  0.68279258     0.37960
O919        O  0.83081513  0.17865453  0.70108337    -1.10300
O920        O  0.87365034  0.21528903  0.75843312    -0.66950
Ni921      Ni  0.81699194  0.20713166  0.73898631     1.26350
O922        O  0.76644839  0.12380711  0.71311020    -0.67180
O923        O  0.82074042  0.25551721  0.71020039    -0.79470
C924        C  0.77144455  0.21566437  0.79672580     0.83970
O925        O  0.79818820  0.23380101  0.77730802    -0.66650
Ni926      Ni  0.88456911  0.18971964  0.68079856     1.27450
Ni927      Ni  0.82566076  0.12758068  0.72715647     1.26060
H928        H  0.84211144  0.15355333  0.78120656     0.38510
O929        O  0.10684057  0.13779942  0.95651170    -0.81440
O930        O  0.17150110  0.25028674  0.55893608    -0.66130
O931        O  0.15732134  0.18946855  0.98139675    -1.12730
C932        C  0.19209869  0.08384389  0.07028573     1.05450
O933        O  0.22654016  0.21583284  0.56954259    -0.79340
O934        O  0.25818207  0.14964633  0.55449583    -0.66920
Ni935      Ni  0.10543841  0.19271128  0.95440135     1.34870
C936        C  0.26058088  0.14199389  0.52262427     0.84180
O937        O  0.15396143  0.26699761  0.48971140    -0.79880
O938        O  0.10115168  0.24890914  0.95400304    -0.90150
C939        C  0.19956440  0.23718791  0.58109560     0.83760
O940        O  0.07040861  0.18442954  0.99371701    -0.68350
O941        O  0.20153638  0.10800323  0.59286446    -0.87640
C942        C  0.07006350  0.20219164  0.02119195     0.84590
C943        C  0.12249122  0.27497028  0.46857921     1.06160
H944        H  0.14323861  0.16410747  0.56099963     0.37960
O945        O  0.16868733  0.17020826  0.54813987    -1.10300
O946        O  0.22881944  0.14467849  0.00077315    -0.66950
Ni947      Ni  0.16852059  0.14013646  0.00939682     1.26350
O948        O  0.10231905  0.22018154  0.53221314    -0.67180
O949        O  0.17859382  0.09349392  0.03840428    -0.79470
C950        C  0.14007942  0.12471516  0.94530879     0.83970
O951        O  0.16579867  0.11086085  0.96899822    -0.66650
Ni952      Ni  0.21369371  0.16288946  0.58246364     1.27450
Ni953      Ni  0.16197040  0.22023764  0.51977351     1.26060
H954        H  0.18009328  0.19622105  0.96542749     0.38510
O955        O  0.10575600  0.14742079  0.70071964    -0.81440
O956        O  0.17715083  0.24508942  0.81424213    -0.66130
O957        O  0.15891029  0.19373124  0.73096273    -1.12730
C958        C  0.18605572  0.08078137  0.81356455     1.05450
O959        O  0.23117883  0.20918841  0.82075147    -0.79340
O960        O  0.25894556  0.14310178  0.79983778    -0.66920
Ni961      Ni  0.10698708  0.20140616  0.70405679     1.34870
C962        C  0.25877815  0.13808651  0.76714992     0.84180
O963        O  0.15889874  0.26947060  0.74606672    -0.79880
O964        O  0.10561645  0.25656014  0.70829371    -0.90150
C965        C  0.20340637  0.22716172  0.83517696     0.83760
O966        O  0.07195185  0.19051727  0.74301065    -0.68350
O967        O  0.20006495  0.10311182  0.83624580    -0.87640
C968        C  0.07344939  0.20457541  0.77253239     0.84590
C969        C  0.12801433  0.28006337  0.72511696     1.06160
H970        H  0.14487559  0.16150298  0.80920356     0.37960
O971        O  0.17019976  0.16784727  0.79623427    -1.10300
O972        O  0.22675311  0.14423681  0.74629984    -0.66950
Ni973      Ni  0.16728952  0.14182287  0.75484765     1.26350
O974        O  0.10653952  0.22019852  0.78465330    -0.67180
O975        O  0.17414951  0.09213382  0.78129645    -0.79470
C976        C  0.13916710  0.13647500  0.68825810     0.83970
O977        O  0.16343383  0.11805827  0.71073610    -0.66650
Ni978      Ni  0.21596678  0.15654062  0.82928867     1.27450
Ni979      Ni  0.16559651  0.22004025  0.77205905     1.26060
H980        H  0.18210124  0.20132004  0.71573371     0.38510
O981        O  0.24066345  0.79018143  0.59626009    -0.81440
O982        O  0.18232783  0.88975838  0.97101302    -0.66130
O983        O  0.18245992  0.83398154  0.56381243    -1.12730
C984        C  0.14309077  0.72694915  0.50497480     1.05450
O985        O  0.12293621  0.86264959  0.96471928    -0.79340
O986        O  0.08855272  0.81863021  0.01362474    -0.66920
Ni987      Ni  0.22752778  0.84274899  0.59681327     1.34870
C988        C  0.08521648  0.79606286  0.04157056     0.84180
O989        O  0.19289647  0.91111633  0.03811076    -0.79880
O990        O  0.21397912  0.89645714  0.59596208    -0.90150
C991        C  0.15668860  0.87413150  0.95069033     0.83760
O992        O  0.27219658  0.85669209  0.56601163    -0.68350
O993        O  0.11996661  0.75226068  0.98655921    -0.87640
C994        C  0.27460078  0.86238112  0.53237478     0.84590
C995        C  0.20398790  0.92069323  0.06913383     1.06160
H996        H  0.19660209  0.80562741  0.98732075     0.37960
O997        O  0.17366634  0.81252758  0.00159126    -1.10300
O998        O  0.11711267  0.77869429  0.55658499    -0.66950
Ni999      Ni  0.17754077  0.78287291  0.54690206     1.26350
O1000       O  0.24333513  0.85785388  0.01131490    -0.67180
O1001       O  0.17233311  0.73525618  0.52684145    -0.79470
C1002       C  0.21138671  0.77197567  0.61237331     0.83970
O1003       O  0.18581143  0.75464215  0.59331665    -0.66650
Ni1004     Ni  0.12202908  0.80829706  0.97543807     1.27450
Ni1005     Ni  0.18367962  0.86279106  0.01849467     1.26060
H1006       H  0.15642794  0.84018470  0.57427351     0.38510
O1007       O  0.24760274  0.78775520  0.84122548    -0.81440
O1008       O  0.17187935  0.89155184  0.72194340    -0.66130
O1009       O  0.18852157  0.83192957  0.81168203    -1.12730
C1010       C  0.15484411  0.72314779  0.74655122     1.05450
O1011       O  0.11852366  0.85516638  0.71714009    -0.79340
O1012       O  0.08821466  0.79353611  0.75296569    -0.66920
Ni1013     Ni  0.23784351  0.84140394  0.83958503     1.34870
C1014       C  0.08870336  0.78694644  0.78664214     0.84180
O1015       O  0.18375282  0.90908511  0.78895011    -0.79880
O1016       O  0.22637454  0.89593877  0.83781069    -0.90150
C1017       C  0.14816162  0.87375068  0.70205495     0.83760
O1018       O  0.27856497  0.85112979  0.80387979    -0.68350
O1019       O  0.14013441  0.74767891  0.72167380    -0.87640
C1020       C  0.27466024  0.86475700  0.77150921     0.84590
C1021       C  0.20333272  0.91882797  0.81684601     1.06160
H1022       H  0.20220291  0.80650437  0.73733143     0.37960
O1023       O  0.17690377  0.81132199  0.74949869    -1.10300
O1024       O  0.12236849  0.78236772  0.80583955    -0.66950
Ni1025     Ni  0.18161504  0.78126996  0.79428576     1.26350
O1026       O  0.23897606  0.86789869  0.75553434    -0.67180
O1027       O  0.17298698  0.73256096  0.77525037    -0.79470
C1028       C  0.21835562  0.77050790  0.85859931     0.83970
O1029       O  0.19139401  0.75359788  0.84042902    -0.66650
Ni1030     Ni  0.12986312  0.80198105  0.71872220     1.27450
Ni1031     Ni  0.18076841  0.86208044  0.76763535     1.26060
H1032       H  0.16486575  0.83653347  0.82612980     0.38510
O1033       O  0.88737684  0.84352660  0.93472881    -0.81440
O1034       O  0.81915078  0.73806061  0.55335607    -0.66130
O1035       O  0.82987097  0.79626760  0.96247530    -1.12730
C1036       C  0.79369631  0.90322721  0.02570025     1.05450
O1037       O  0.76175646  0.76858363  0.55451186    -0.79340
O1038       O  0.72632233  0.82556879  0.51081487    -0.66920
Ni1039     Ni  0.87897268  0.79004511  0.93545645     1.34870
C1040       C  0.72904500  0.84208519  0.97931126     0.84180
O1041       O  0.83915684  0.71777658  0.48861895    -0.79880
O1042       O  0.87146832  0.73577869  0.93693217    -0.90150
C1043       C  0.79379665  0.75453643  0.57158452     0.83760
O1044       O  0.92034445  0.78272196  0.97240324    -0.68350
O1045       O  0.77154099  0.87863084  0.54481493    -0.87640
C1046       C  0.91813967  0.77573417  0.00590754     0.84590
C1047       C  0.85895634  0.71001864  0.46102325     1.06160
H1048       H  0.83915508  0.82297294  0.53929401     0.37960
O1049       O  0.81590239  0.81658079  0.52375821    -1.10300
O1050       O  0.76414237  0.84954793  0.96482671    -0.66950
Ni1051     Ni  0.82276281  0.84703635  0.97984674     1.26350
O1052       O  0.88386382  0.77129808  0.52212189    -0.67180
O1053       O  0.81671954  0.89449298  0.00047956    -0.79470
C1054       C  0.85713416  0.85892958  0.91671034     0.83970
O1055       O  0.83170115  0.87617683  0.93414553    -0.66650
Ni1056     Ni  0.76623404  0.82301287  0.54943638     1.27450
Ni1057     Ni  0.82610238  0.76605650  0.50710638     1.26060
H1058       H  0.80538205  0.78992551  0.94838938     0.38510
O1059       O  0.89069109  0.84838716  0.68306422    -0.81440
O1060       O  0.81794860  0.73947065  0.80408859    -0.66130
O1061       O  0.83657425  0.79913224  0.71482953    -1.12730
C1062       C  0.80602688  0.90530788  0.78291672     1.05450
O1063       O  0.76303483  0.77429316  0.80301659    -0.79340
O1064       O  0.73336296  0.84056242  0.76893828    -0.66920
Ni1065     Ni  0.88853794  0.79405560  0.69133464     1.34870
C1066       C  0.73489586  0.84882514  0.73545175     0.84180
O1067       O  0.83867527  0.72086082  0.74001461    -0.79880
O1068       O  0.88816681  0.73865293  0.69976007    -0.90150
C1069       C  0.79191038  0.75646767  0.82128155     0.83760
O1070       O  0.92421909  0.79875311  0.73164601    -0.68350
O1071       O  0.78951289  0.88048476  0.80595565    -0.87640
C1072       C  0.92119049  0.78520763  0.76396847     0.84590
C1073       C  0.86679324  0.71317192  0.71848448     1.06160
H1074       H  0.84723798  0.82517446  0.79048339     0.37960
O1075       O  0.82260510  0.81923881  0.77634548    -1.10300
O1076       O  0.76850694  0.84764181  0.71831458    -0.66950
Ni1077     Ni  0.82721571  0.84935075  0.73197342     1.26350
O1078       O  0.88779583  0.76935268  0.77647274    -0.67180
O1079       O  0.81956985  0.89728521  0.75262919    -0.79470
C1080       C  0.85805051  0.86093384  0.66642638     0.83970
O1081       O  0.83273383  0.87715208  0.68502322    -0.66650
Ni1082     Ni  0.77543709  0.82706872  0.80465847     1.27450
Ni1083     Ni  0.82955689  0.76861431  0.75913569     1.26060
H1084       H  0.81368846  0.79299199  0.69881828     0.38510
O1085       O  0.01458348  0.53581743  0.86491734    -0.81440
O1086       O  0.00066782  0.52406157  0.54157747    -0.66130
O1087       O  0.02819143  0.51320057  0.94149361    -1.12730
C1088       C  0.92393135  0.41694348  0.94928723     1.05450
O1089       O  0.98980625  0.46221348  0.55885387    -0.79340
O1090       O  0.01871604  0.42133601  0.50480470    -0.66920
Ni1091     Ni  0.03213359  0.55916050  0.90839134     1.34870
C1092       C  0.03226119  0.41645756  0.47403287     0.84180
O1093       O  0.06087486  0.55403451  0.49728002    -0.79880
O1094       O  0.05412778  0.58994270  0.94464994    -0.90150
C1095       C  0.99535338  0.49657102  0.56674099     0.83760
O1096       O  0.97580902  0.57276664  0.91754629    -0.68350
O1097       O  0.93713424  0.41225118  0.48177956    -0.87640
C1098       C  0.96131420  0.57881954  0.94771046     0.84590
C1099       C  0.06848706  0.58440567  0.47677917     1.06160
H1100       H  0.94288798  0.49883338  0.48282387     0.37960
O1101       O  0.96928070  0.48549122  0.48272318    -1.10300
O1102       O  0.01814960  0.43525280  0.94509695    -0.66950
Ni1103     Ni  0.98182145  0.47921052  0.93298210     1.26350
O1104       O  0.97721598  0.56314810  0.47746977    -0.67180
O1105       O  0.93515692  0.44495266  0.92701132    -0.79470
C1106       C  0.00383145  0.50240442  0.85691854     0.83970
O1107       O  0.99412201  0.47572223  0.88181776    -0.66650
Ni1108     Ni  0.96544278  0.44038737  0.51670841     1.27450
Ni1109     Ni  0.01464056  0.51986650  0.49096523     1.26060
H1110       H  0.05445640  0.49962129  0.94156908     0.38510
O1111       O  0.00154666  0.53841884  0.61460498    -0.81440
O1112       O  0.01270337  0.52115236  0.79191205    -0.66130
O1113       O  0.02685537  0.51430319  0.68885247    -1.12730
C1114       C  0.92831296  0.41442718  0.69981665     1.05450
O1115       O  0.98930629  0.46207486  0.80913796    -0.79340
O1116       O  0.02518165  0.42665247  0.75374891    -0.66920
Ni1117     Ni  0.02380277  0.56123024  0.65711186     1.34870
C1118       C  0.03720262  0.42063138  0.72263851     0.84180
O1119       O  0.06787375  0.55263490  0.74183680    -0.79880
O1120       O  0.04962804  0.59073805  0.69248807    -0.90150
C1121       C  0.00206120  0.49496431  0.81695389     0.83760
O1122       O  0.96906955  0.57307132  0.67300667    -0.68350
O1123       O  0.94556691  0.40854216  0.73085087    -0.87640
C1124       C  0.96177440  0.57879086  0.70532777     0.84590
C1125       C  0.07308022  0.58304668  0.72029084     1.06160
H1126       H  0.94598042  0.49899025  0.73519319     0.37960
O1127       O  0.97189551  0.48527788  0.73352624    -1.10300
O1128       O  0.01962148  0.43657866  0.69383531    -0.66950
Ni1129     Ni  0.98128512  0.47944250  0.68299087     1.26350
O1130       O  0.98269745  0.56209720  0.73189521    -0.67180
O1131       O  0.93495940  0.44456461  0.67868127    -0.79470
C1132       C  0.99636978  0.50398545  0.60661006     0.83970
O1133       O  0.99167775  0.47620531  0.63163472    -0.66650
Ni1134     Ni  0.96970320  0.43907815  0.76619930     1.27450
Ni1135     Ni  0.01980168  0.51862789  0.73963146     1.26060
H1136       H  0.05335478  0.50209880  0.68565573     0.38510
C1137       C  0.90687919  0.65900055  0.74692007    -0.20850
C1138       C  0.88009064  0.67307866  0.71857672    -0.07420
C1139       C  0.87472481  0.65248651  0.68847032     0.13450
C1140       C  0.90028620  0.62048095  0.68547069    -0.20910
C1141       C  0.93037809  0.60820178  0.71247627    -0.07420
C1142       C  0.93217204  0.62693845  0.74453832     0.13440
C1143       C  0.96222294  0.61561188  0.77574667    -0.24260
H1144       H  0.91033556  0.67507315  0.77008485     0.14720
H1145       H  0.89738595  0.60560441  0.66156970     0.14750
C1146       C  0.84154210  0.66398577  0.66010109    -0.24200
H1147       H  0.95918445  0.63424602  0.79776394     0.04970
H1148       H  0.99519713  0.61842648  0.76694043     0.08190
H1149       H  0.95548642  0.58564141  0.78719910     0.08190
H1150       H  0.84576575  0.69444872  0.64952238     0.08180
H1151       H  0.81008213  0.66067361  0.67205572     0.08180
H1152       H  0.84240348  0.64593731  0.63746447     0.04950
C1153       C  0.88485600  0.66195703  0.92303595    -0.20850
C1154       C  0.87252220  0.66987531  0.45716257    -0.07420
C1155       C  0.88279008  0.64291884  0.98696092     0.13450
C1156       C  0.90916853  0.61184654  0.98230920    -0.20910
C1157       C  0.92626363  0.60699244  0.94886285    -0.07420
C1158       C  0.91200325  0.63161705  0.91839258     0.13440
C1159       C  0.92661934  0.62816903  0.88095534    -0.24260
H1160       H  0.87592669  0.68172068  0.39988403     0.14720
H1161       H  0.91839609  0.59246819  0.00560812     0.14750
C1162       C  0.86824631  0.64753259  0.02412851    -0.24200
H1163       H  0.91135781  0.64954079  0.86077097     0.04970
H1164       H  0.91865254  0.59913711  0.87302956     0.08190
H1165       H  0.96101538  0.63351635  0.37966795     0.08190
H1166       H  0.83338290  0.64815290  0.02398090     0.08180
H1167       H  0.88124862  0.67448022  0.53350334     0.08180
H1168       H  0.87867019  0.62334093  0.04387804     0.04950
C1169       C  0.79724756  0.82995034  0.88544255    -0.20850
C1170       C  0.84067754  0.83735692  0.88727831    -0.07420
C1171       C  0.86787726  0.81327676  0.87071425     0.13450
C1172       C  0.85144640  0.78125252  0.85554375    -0.20910
C1173       C  0.80789317  0.77490729  0.85263643    -0.07420
C1174       C  0.78080288  0.79814014  0.87002855     0.13440
C1175       C  0.73424504  0.79022995  0.87248967    -0.24260
H1176       H  0.77603189  0.84663826  0.89907017     0.14720
H1177       H  0.87285464  0.76326571  0.84303966     0.14750
C1178       C  0.91466991  0.81997627  0.86938693    -0.24200
H1179       H  0.72540997  0.78766514  0.90104495     0.04970
H1180       H  0.72481815  0.76291343  0.86167682     0.08190
H1181       H  0.71652976  0.81436072  0.85761517     0.08190
H1182       H  0.93128214  0.79666845  0.88645676     0.08180
H1183       H  0.92443030  0.84835475  0.87779462     0.08180
H1184       H  0.92451608  0.81949438  0.84155615     0.04950
C1185       C  0.78328243  0.80256422  0.61377630    -0.20850
C1186       C  0.81047733  0.77554622  0.60161807    -0.07420
C1187       C  0.85407364  0.77858010  0.61004835     0.13450
C1188       C  0.86908318  0.81080496  0.62590223    -0.20910
C1189       C  0.84185389  0.83836521  0.63720659    -0.07420
C1190       C  0.79855306  0.83527843  0.62855310     0.13440
C1191       C  0.76792238  0.86698807  0.63179702    -0.24260
H1192       H  0.74978423  0.80066960  0.60787136     0.14720
H1193       H  0.90253545  0.81269532  0.63200969     0.14750
C1194       C  0.88598636  0.74817792  0.60479024    -0.24200
H1195       H  0.74807552  0.87193444  0.60704961     0.04970
H1196       H  0.78419023  0.89470737  0.63488010     0.08190
H1197       H  0.74647074  0.85846043  0.65387871     0.08190
H1198       H  0.91014207  0.76031272  0.58626521     0.08180
H1199       H  0.87246547  0.72172666  0.59514175     0.08180
H1200       H  0.90232034  0.73909757  0.63078710     0.04950
C1201       C  0.14329864  0.67143190  0.70709195    -0.20850
C1202       C  0.14718656  0.68174798  0.74212056    -0.07420
C1203       C  0.13566750  0.65431819  0.77092236     0.13450
C1204       C  0.11382406  0.62054642  0.76339094    -0.20910
C1205       C  0.10475662  0.61304066  0.72792862    -0.07420
C1206       C  0.12289542  0.63733345  0.69958329     0.13440
C1207       C  0.12047112  0.62819820  0.66107544    -0.24260
H1208       H  0.15404206  0.69140536  0.68508882     0.14720
H1209       H  0.10175947  0.60114639  0.78521484     0.14750
C1210       C  0.14499033  0.66071872  0.80950139    -0.24200
H1211       H  0.14112284  0.64761058  0.64382716     0.04970
H1212       H  0.08807364  0.63202572  0.64965964     0.08190
H1213       H  0.13090750  0.59821754  0.65949199     0.08190
H1214       H  0.12982548  0.68722965  0.81631004     0.08180
H1215       H  0.17948164  0.66336864  0.81405119     0.08180
H1216       H  0.13353098  0.63636841  0.82823466     0.04950
C1217       C  0.02511198  0.82075683  0.79751137    -0.20850
C1218       C  0.04677381  0.78576814  0.80220016    -0.07420
C1219       C  0.02344819  0.75092461  0.80498644     0.13450
C1220       C  0.97976026  0.75178867  0.79815492    -0.20910
C1221       C  0.95979119  0.78659383  0.78648868    -0.07420
C1222       C  0.98214439  0.82168605  0.78805889     0.13440
C1223       C  0.96175195  0.86007472  0.77672826    -0.24260
H1224       H  0.04306126  0.84746754  0.79528821     0.14720
H1225       H  0.96244220  0.72497602  0.79708211     0.14750
C1226       C  0.04523188  0.71275494  0.81076976    -0.24200
H1227       H  0.98331706  0.88447211  0.78122403     0.04970
H1228       H  0.93311819  0.86327770  0.79218458     0.08190
H1229       H  0.95292430  0.86257012  0.74777228     0.08190
H1230       H  0.06406382  0.71104288  0.83627072     0.08180
H1231       H  0.06602046  0.70971298  0.78807559     0.08180
H1232       H  0.02249968  0.68827748  0.81236189     0.04950
C1233       C  0.12690096  0.63124289  0.46856706    -0.20850
C1234       C  0.09401334  0.61582010  0.49000759    -0.07420
C1235       C  0.08338297  0.63401475  0.52049563     0.13450
C1236       C  0.10392847  0.66844302  0.52697853    -0.20910
C1237       C  0.13274481  0.68607992  0.50288437    -0.07420
C1238       C  0.14685043  0.66601003  0.47506185     0.13440
C1239       C  0.18326089  0.68099283  0.45287922    -0.24260
H1240       H  0.13606851  0.61662861  0.44595859     0.14720
H1241       H  0.09546863  0.68280894  0.54991428     0.14750
C1242       C  0.04874876  0.62010503  0.54533692    -0.24200
H1243       H  0.18978370  0.66226845  0.43156864     0.04970
H1244       H  0.21185059  0.68212374  0.47047536     0.08190
H1245       H  0.17681251  0.71040462  0.94015539     0.08190
H1246       H  0.03118131  0.59496731  0.53699666     0.08180
H1247       H  0.02560119  0.64340032  0.04651903     0.08180
H1248       H  0.06229487  0.61238161  0.57272880     0.04950
C1249       C  0.14586178  0.82185262  0.91213540    -0.20850
C1250       C  0.17288397  0.85066031  0.92364669    -0.07420
C1251       C  0.21600572  0.84940915  0.91656895     0.13450
C1252       C  0.23149930  0.81708449  0.90236579    -0.20910
C1253       C  0.20423815  0.78877101  0.88996111    -0.07420
C1254       C  0.16106231  0.78984839  0.89763763     0.13440
C1255       C  0.12973621  0.75803801  0.89169295    -0.24260
H1256       H  0.11243088  0.82280591  0.91667038     0.14720
H1257       H  0.26466423  0.81655058  0.89666466     0.14750
C1258       C  0.24477993  0.88368563  0.92000199    -0.24200
H1259       H  0.11348000  0.74926892  0.91700559     0.04970
H1260       H  0.14417922  0.73158330  0.88397415     0.08190
H1261       H  0.10552566  0.76857272  0.87127634     0.08190
H1262       H  0.25137488  0.88844787  0.94823880     0.08180
H1263       H  0.22991357  0.90995467  0.90616531     0.08180
H1264       H  0.27550501  0.88003027  0.90759585     0.04950
C1265       C  0.20887377  0.84565922  0.67569039    -0.20850
C1266       C  0.16633585  0.85568601  0.67263101    -0.07420
C1267       C  0.13898459  0.83504942  0.65155448     0.13450
C1268       C  0.15248670  0.80138506  0.63886835    -0.20910
C1269       C  0.19494957  0.79091629  0.64207887    -0.07420
C1270       C  0.22301238  0.81240356  0.66237697     0.13440
C1271       C  0.26823749  0.80115638  0.66983211    -0.24260
H1272       H  0.23048653  0.86145912  0.69141124     0.14720
H1273       H  0.13055720  0.78603122  0.62278962     0.14750
C1274       C  0.09557190  0.84899920  0.64138261    -0.24200
H1275       H  0.27480957  0.79793655  0.69922663     0.04970
H1276       H  0.28923493  0.82390826  0.65711481     0.08190
H1277       H  0.27555449  0.77330787  0.65974952     0.08190
H1278       H  0.08832204  0.87649127  0.65217487     0.08180
H1279       H  0.07213230  0.82678620  0.65101001     0.08180
H1280       H  0.09388708  0.85462536  0.61182587     0.04950
C1281       C  0.96909225  0.80555146  0.54464374    -0.20850
C1282       C  0.95786970  0.77399507  0.02644640    -0.07420
C1283       C  0.98763732  0.74541471  0.02237003     0.13450
C1284       C  0.02884370  0.75015517  0.03544842    -0.20910
C1285       C  0.04176605  0.78403152  0.04992747    -0.07420
C1286       C  0.01089686  0.81152451  0.55554313     0.13440
C1287       C  0.02168815  0.84823318  0.57128369    -0.24260
H1288       H  0.94573621  0.82727661  0.54756180     0.14720
H1289       H  0.05228211  0.73018531  0.02908937     0.14750
C1290       C  0.97678964  0.71141276  0.00197406    -0.24200
H1291       H  0.99530522  0.86894977  0.56795223     0.04970
H1292       H  0.04939762  0.86266676  0.55840062     0.08190
H1293       H  0.02716056  0.84120472  0.60036571     0.08190
H1294       H  0.96623171  0.72132630  0.97411282     0.08180
H1295       H  0.95137830  0.69414875  0.01557088     0.08180
H1296       H  0.00421816  0.69245049  0.00030404     0.04950
C1297       C  0.08614755  0.37265336  0.75332964    -0.20850
C1298       C  0.07014897  0.39085480  0.72068097    -0.07420
C1299       C  0.08197184  0.37641030  0.68837319     0.13450
C1300       C  0.10281936  0.34080969  0.69027688    -0.20910
C1301       C  0.11446478  0.32069793  0.72336356    -0.07420
C1302       C  0.10796257  0.33805435  0.75516363     0.13440
C1303       C  0.12088509  0.31912439  0.79168934    -0.24260
H1304       H  0.07945914  0.38427829  0.77817936     0.14720
H1305       H  0.10936873  0.32824419  0.66586279     0.14750
C1306       C  0.07399331  0.39819541  0.65194691    -0.24200
H1307       H  0.11179065  0.33618695  0.81355794     0.04970
H1308       H  0.15552962  0.31609258  0.79360599     0.08190
H1309       H  0.10519298  0.29066352  0.79630435     0.08190
H1310       H  0.08796513  0.42753184  0.65148017     0.08180
H1311       H  0.04003895  0.40042682  0.64519436     0.08180
H1312       H  0.08848967  0.38374984  0.63042604     0.04950
C1313       C  0.15819522  0.97549025  0.81743852    -0.20850
C1314       C  0.19809044  0.95908620  0.82449887    -0.07420
C1315       C  0.23220618  0.98261428  0.83409483     0.13450
C1316       C  0.22585971  0.02229794  0.83446007    -0.20910
C1317       C  0.18699493  0.03898749  0.82366875    -0.07420
C1318       C  0.15234092  0.01523424  0.81635628     0.13440
C1319       C  0.10937441  0.03173777  0.80682215    -0.24260
H1320       H  0.13185968  0.95728810  0.81078009     0.14720
H1321       H  0.25238243  0.04087557  0.83977170     0.14750
C1322       C  0.27597416  0.96691439  0.84071248    -0.24200
H1323       H  0.08547775  0.00873952  0.80387568     0.04970
H1324       H  0.10984764  0.05035275  0.78101833     0.08190
H1325       H  0.09934054  0.04892632  0.82827800     0.08190
H1326       H  0.28608226  0.95349502  0.81686605     0.08180
H1327       H  0.27674287  0.94517375  0.86442931     0.08180
H1328       H  0.29911411  0.98989733  0.84592220     0.04950
C1329       C  0.11049594  0.33466534  0.49698800    -0.20850
C1330       C  0.10690832  0.31546192  0.46580675    -0.07420
C1331       C  0.08426073  0.33359500  0.93580322     0.13450
C1332       C  0.06377578  0.36849277  0.93857171    -0.20910
C1333       C  0.06307244  0.38509824  0.47110291    -0.07420
C1334       C  0.08834048  0.36858389  0.50039988     0.13440
C1335       C  0.09188838  0.38574301  0.53565639    -0.24260
H1336       H  0.12806146  0.32138506  0.52014934     0.14720
H1337       H  0.04584452  0.38150099  0.91555881     0.14750
C1338       C  0.08075771  0.31645702  0.90087223    -0.24200
H1339       H  0.11595544  0.37091906  0.55406833     0.04970
H1340       H  0.06159411  0.38276654  0.54954481     0.08190
H1341       H  0.10116127  0.41657583  0.53099964     0.08190
H1342       H  0.06101038  0.29008484  0.90423770     0.08180
H1343       H  0.11269746  0.31036542  0.89213418     0.08180
H1344       H  0.06543826  0.33629155  0.87939259     0.04950
C1345       C  0.12962815  0.17140622  0.89353104    -0.20850
C1346       C  0.15665449  0.14458707  0.91229342    -0.07420
C1347       C  0.20030210  0.14765033  0.90690455     0.13450
C1348       C  0.21599214  0.18099441  0.88781812    -0.20910
C1349       C  0.18870935  0.20849578  0.86962280    -0.07420
C1350       C  0.14516107  0.20483811  0.87528164     0.13440
C1351       C  0.11405182  0.23624398  0.86492083    -0.24260
H1352       H  0.09593420  0.16890554  0.89695730     0.14720
H1353       H  0.24941625  0.18300713  0.88304019     0.14750
C1354       C  0.22962070  0.11434169  0.91735608    -0.24200
H1355       H  0.09673093  0.24099575  0.88896435     0.04970
H1356       H  0.09040381  0.22723216  0.84527792     0.08190
H1357       H  0.12907986  0.26390358  0.85520900     0.08190
H1358       H  0.21653280  0.08790477  0.90700597     0.08180
H1359       H  0.23449765  0.10873860  0.94665130     0.08180
H1360       H  0.26105300  0.11977951  0.90572849     0.04950
C1361       C  0.21602732  0.20317531  0.63884660    -0.20850
C1362       C  0.18845157  0.22864218  0.61875046    -0.07420
C1363       C  0.14538388  0.22598969  0.62576629     0.13450
C1364       C  0.12981255  0.19185488  0.64299106    -0.20910
C1365       C  0.15696126  0.16287489  0.65894388    -0.07420
C1366       C  0.20088001  0.16807699  0.65499036     0.13440
C1367       C  0.23227517  0.13629527  0.66313436    -0.24260
H1368       H  0.24952427  0.20612657  0.63451878     0.14720
H1369       H  0.09610652  0.18922471  0.64609341     0.14750
C1370       C  0.11513082  0.25793564  0.61375730    -0.24200
H1371       H  0.25206538  0.13444991  0.63954376     0.04970
H1372       H  0.21676514  0.10787269  0.66820448     0.08190
H1373       H  0.25363665  0.14249939  0.68564634     0.08190
H1374       H  0.09193261  0.24803129  0.59400828     0.08180
H1375       H  0.13151058  0.28424140  0.60182661     0.08180
H1376       H  0.09795546  0.26589755  0.63710827     0.04950
C1377       C  0.22439870  0.02769118  0.05060650    -0.20850
C1378       C  0.20180285  0.04249059  0.07745365    -0.07420
C1379       C  0.18385200  0.01690372  0.10444234     0.13450
C1380       C  0.18711307  0.97679431  0.10252432    -0.20910
C1381       C  0.20647711  0.96231796  0.07341917    -0.07420
C1382       C  0.22620087  0.98841900  0.04756645     0.13440
C1383       C  0.24862569  0.97686316  0.01554038    -0.24260
H1384       H  0.23879343  0.04743029  0.03009855     0.14720
H1385       H  0.17235351  0.95683050  0.12253077     0.14750
C1386       C  0.15967694  0.03177909  0.13380482    -0.24200
H1387       H  0.23147839  0.98837988  0.99056239     0.04970
H1388       H  0.25179027  0.94553937  0.01516860     0.08190
H1389       H  0.28078612  0.98943100  0.51516723     0.08190
H1390       H  0.13295745  0.04948529  0.12205020     0.08180
H1391       H  0.18066498  0.04974111  0.64954478     0.08180
H1392       H  0.14694315  0.00788663  0.15237222     0.04950
C1393       C  0.89508627  0.32193774  0.66375825    -0.20850
C1394       C  0.86257534  0.30983459  0.68714540    -0.07420
C1395       C  0.84600818  0.33700952  0.70855746     0.13450
C1396       C  0.86542324  0.37335175  0.70877104    -0.20910
C1397       C  0.90098256  0.38320463  0.68865059    -0.07420
C1398       C  0.91501604  0.35785203  0.66487611     0.13440
C1399       C  0.95383730  0.36682103  0.64365919    -0.24260
H1400       H  0.90770368  0.30192968  0.64675807     0.14720
H1401       H  0.85497181  0.39308185  0.72706845     0.14750
C1402       C  0.81021182  0.32754960  0.73340882    -0.24200
H1403       H  0.96068080  0.34395727  0.62625823     0.04970
H1404       H  0.98094427  0.36898662  0.66260522     0.08190
H1405       H  0.94995214  0.39442968  0.62637892     0.08190
H1406       H  0.81974809  0.30452725  0.75460399     0.08180
H1407       H  0.78216608  0.31836360  0.71802986     0.08180
H1408       H  0.80103783  0.35278421  0.74704613     0.04950
C1409       C  0.01080612  0.23996709  0.78429228    -0.20850
C1410       C  0.03293820  0.20527217  0.79021330    -0.07420
C1411       C  0.01022295  0.17037414  0.79658749     0.13450
C1412       C  0.96659893  0.17020249  0.78999455    -0.20910
C1413       C  0.94567210  0.20413553  0.77679868    -0.07420
C1414       C  0.96725739  0.23979248  0.77660276     0.13440
C1415       C  0.94582583  0.27714469  0.76363252    -0.24260
H1416       H  0.02834082  0.26675690  0.77961824     0.14720
H1417       H  0.94979502  0.14293288  0.79074945     0.14750
C1418       C  0.03278213  0.13285193  0.80646424    -0.24200
H1419       H  0.96747733  0.30222450  0.76470473     0.04970
H1420       H  0.91879727  0.28152421  0.78061781     0.08190
H1421       H  0.93447726  0.27660331  0.73544682     0.08190
H1422       H  0.05150686  0.13449695  0.83172958     0.08180
H1423       H  0.05417371  0.12685109  0.78497385     0.08180
H1424       H  0.01039401  0.10824791  0.81061702     0.04950
C1425       C  0.78242271  0.00460666  0.81122606    -0.20850
C1426       C  0.81721621  0.02564758  0.79744873    -0.07420
C1427       C  0.85123166  0.00553621  0.78486550     0.13450
C1428       C  0.84716903  0.96596775  0.78195112    -0.20910
C1429       C  0.81031906  0.94568870  0.79171755    -0.07420
C1430       C  0.77835029  0.96482846  0.80830613     0.13440
C1431       C  0.73856367  0.94434862  0.82054519    -0.24260
H1432       H  0.75646224  0.01993980  0.82099726     0.14720
H1433       H  0.87249156  0.95096241  0.77083759     0.14750
C1434       C  0.89180254  0.02569780  0.77396244    -0.24200
H1435       H  0.71626009  0.96417994  0.83125947     0.04970
H1436       H  0.74605956  0.92120522  0.84228113     0.08190
H1437       H  0.72258521  0.93175285  0.79769654     0.08190
H1438       H  0.90419382  0.04187191  0.79603489     0.08180
H1439       H  0.88708462  0.04573111  0.74929701     0.08180
H1440       H  0.91617584  0.00486920  0.76826108     0.04950
C1441       C  0.88898174  0.32460134  0.91469644    -0.20850
C1442       C  0.85839147  0.31228812  0.93995893    -0.07420
C1443       C  0.84270446  0.33962914  0.46162347     0.13450
C1444       C  0.86137437  0.37633726  0.46022223    -0.20910
C1445       C  0.89539468  0.38650867  0.93827916    -0.07420
C1446       C  0.90781308  0.36126354  0.91377391     0.13440
C1447       C  0.94325398  0.37165791  0.88879959    -0.24260
H1448       H  0.90060472  0.30456212  0.89726272     0.14720
H1449       H  0.85192063  0.39614837  0.47883222     0.14750
C1450       C  0.80872953  0.33012372  0.48833904    -0.24200
H1451       H  0.94949376  0.34833804  0.87173700     0.04970
H1452       H  0.97241373  0.37689281  0.90453588     0.08190
H1453       H  0.93522044  0.39809931  0.87094918     0.08190
H1454       H  0.81969082  0.30736748  0.50929059     0.08180
H1455       H  0.77976448  0.32056407  0.97443196     0.08180
H1456       H  0.80035945  0.35544963  0.50218732     0.04950
C1457       C  0.84383695  0.18466014  0.86696254    -0.20850
C1458       C  0.82259270  0.15066406  0.88012959    -0.07420
C1459       C  0.77904553  0.14699303  0.87157225     0.13450
C1460       C  0.75807784  0.17806027  0.85282726    -0.20910
C1461       C  0.78100286  0.20855806  0.83538012    -0.07420
C1462       C  0.82262373  0.21475391  0.84713768     0.13440
C1463       C  0.84556288  0.25224772  0.83790892    -0.24260
H1464       H  0.87694827  0.18870541  0.87318846     0.14720
H1465       H  0.72525710  0.17427479  0.84507945     0.14750
C1466       C  0.75384087  0.11031969  0.87850035    -0.24200
H1467       H  0.85713479  0.26362262  0.86290797     0.04970
H1468       H  0.82480908  0.27445618  0.82352869     0.08190
H1469       H  0.87279626  0.24749584  0.82129534     0.08190
H1470       H  0.72823636  0.11536297  0.89654026     0.08180
H1471       H  0.77262592  0.08505089  0.88926867     0.08180
H1472       H  0.73893714  0.10278667  0.85298654     0.04950
C1473       C  0.85781367  0.17632164  0.61807015    -0.20850
C1474       C  0.83833120  0.14202580  0.63273725    -0.07420
C1475       C  0.79567049  0.13523931  0.62358909     0.13450
C1476       C  0.77270106  0.16454344  0.60427911    -0.20910
C1477       C  0.79257983  0.19779139  0.58823071    -0.07420
C1478       C  0.83493599  0.20517264  0.59781313     0.13440
C1479       C  0.85644964  0.24352464  0.58857615    -0.24260
H1480       H  0.89061875  0.18200218  0.62434566     0.14720
H1481       H  0.73978785  0.15922576  0.59799118     0.14750
C1482       C  0.77462261  0.09651949  0.63144605    -0.24200
H1483       H  0.87004789  0.25395039  0.61334948     0.04970
H1484       H  0.83453687  0.26615505  0.57680098     0.08190
H1485       H  0.88236285  0.24044219  0.57008758     0.08190
H1486       H  0.76666443  0.09175660  0.65971510     0.08180
H1487       H  0.79549282  0.07333274  0.62451778     0.08180
H1488       H  0.74458961  0.09448065  0.61583785     0.04950
C1489       C  0.96062522  0.23445996  0.52607742    -0.20850
C1490       C  0.94104715  0.19844330  0.02468947    -0.07420
C1491       C  0.96378751  0.16481356  0.03632609     0.13450
C1492       C  0.00722089  0.16770961  0.04351147    -0.20910
C1493       C  0.02845953  0.20327961  0.03757599    -0.07420
C1494       C  0.00437431  0.23730077  0.53195890     0.13440
C1495       C  0.02507199  0.27633296  0.52692740    -0.24260
H1496       H  0.94280091  0.26027563  0.51766648     0.14720
H1497       H  0.02547160  0.14157588  0.04847507     0.14750
C1498       C  0.94273738  0.12574546  0.03867204    -0.24200
H1499       H  0.00168381  0.29985725  0.52294448     0.04970
H1500       H  0.04440222  0.27815215  0.50287582     0.08190
H1501       H  0.04513508  0.28104350  0.55077706     0.08190
H1502       H  0.93048393  0.11942914  0.01188756     0.08180
H1503       H  0.91624746  0.12511911  0.05729199     0.08180
H1504       H  0.96488353  0.10250590  0.04882832     0.04950
C1505       C  0.75734084  0.00373942  0.54150812    -0.20850
C1506       C  0.79505878  0.02463722  0.03703532    -0.07420
C1507       C  0.83272544  0.00479619  0.03280927     0.13450
C1508       C  0.83134295  0.96490032  0.03100298    -0.20910
C1509       C  0.79324863  0.94420627  0.03295385    -0.07420
C1510       C  0.75582716  0.96373517  0.53922898     0.13440
C1511       C  0.71381879  0.94331634  0.54088174    -0.24260
H1512       H  0.72846057  0.01919952  0.54413279     0.14720
H1513       H  0.86011987  0.94989563  0.02688242     0.14750
C1514       C  0.87445595  0.02570784  0.02971466    -0.24200
H1515       H  0.68773971  0.96349752  0.54377488     0.04970
H1516       H  0.71353357  0.92115935  0.56429721     0.08190
H1517       H  0.70755234  0.92948925  0.51588360     0.08190
H1518       H  0.88013379  0.04195011  0.05333605     0.08180
H1519       H  0.87488457  0.04596164  0.00491546     0.08180
H1520       H  0.90088826  0.00544017  0.02862642     0.04950
C1521       C  0.65666509  0.91989564  0.69078290    -0.20850
C1522       C  0.61905160  0.90183655  0.70159980    -0.07420
C1523       C  0.61947960  0.86293031  0.71617834     0.13450
C1524       C  0.65816262  0.84411602  0.72282662    -0.20910
C1525       C  0.69623947  0.86410112  0.71669454    -0.07420
C1526       C  0.69540760  0.90238412  0.69993902     0.13440
C1527       C  0.73427642  0.92752098  0.69772914    -0.24260
H1528       H  0.65597732  0.94997791  0.68020841     0.14720
H1529       H  0.65881271  0.81499972  0.73606486     0.14750
C1530       C  0.57939139  0.84246110  0.72747205    -0.24200
H1531       H  0.72819250  0.95562242  0.68182324     0.04970
H1532       H  0.75982418  0.91387737  0.68482193     0.08190
H1533       H  0.74520342  0.93277285  0.72516472     0.08190
H1534       H  0.55735531  0.84231870  0.70396601     0.08180
H1535       H  0.56448976  0.85737524  0.74846786     0.08180
H1536       H  0.58517147  0.81215185  0.73850322     0.04950
C1537       C  0.66020487  0.03515971  0.71277573    -0.20850
C1538       C  0.62144333  0.05259485  0.71594562    -0.07420
C1539       C  0.61985381  0.09260111  0.71810267     0.13450
C1540       C  0.65766322  0.11412761  0.71808737    -0.20910
C1541       C  0.69692747  0.09610023  0.71740297    -0.07420
C1542       C  0.69792087  0.05594068  0.71490813     0.13440
C1543       C  0.73813173  0.03356929  0.72034476    -0.24260
H1544       H  0.66113641  0.00419834  0.71252570     0.14720
H1545       H  0.65678452  0.14448487  0.72176383     0.14750
C1546       C  0.57858419  0.11202081  0.72207328    -0.24200
H1547       H  0.73255445  0.00221982  0.72083624     0.04970
H1548       H  0.75228665  0.03830326  0.74664822     0.08190
H1549       H  0.76062166  0.04226453  0.69916762     0.08190
H1550       H  0.56356330  0.09945808  0.74699434     0.08180
H1551       H  0.55738744  0.10776093  0.69873001     0.08180
H1552       H  0.58277793  0.14345163  0.72352230     0.04950
C1553       C  0.33641152  0.13621778  0.76202424    -0.20850
C1554       C  0.29655044  0.12058297  0.75442134    -0.07420
C1555       C  0.29376808  0.08404010  0.74142670     0.13450
C1556       C  0.33037554  0.06567409  0.73377334    -0.20910
C1557       C  0.37012204  0.08131326  0.74065457    -0.07420
C1558       C  0.37345683  0.11671358  0.75559239     0.13440
C1559       C  0.41557786  0.13401037  0.76434640    -0.24260
H1560       H  0.33846484  0.16327821  0.77376390     0.14720
H1561       H  0.32799809  0.03775440  0.72361131     0.14750
C1562       C  0.25304053  0.06188876  0.73912400    -0.24200
H1563       H  0.41231465  0.16222999  0.77511838     0.04970
H1564       H  0.43436045  0.13851252  0.73980906     0.08190
H1565       H  0.43266357  0.11443941  0.78493211     0.08190
H1566       H  0.22945770  0.07852472  0.72225852     0.08180
H1567       H  0.24107960  0.05522665  0.76631911     0.08180
H1568       H  0.25696909  0.03408183  0.72773433     0.04950
C1569       C  0.38565375  0.90310740  0.75282419    -0.20850
C1570       C  0.37749520  0.93053467  0.72345064    -0.07420
C1571       C  0.33731806  0.93113481  0.70627542     0.13450
C1572       C  0.30543673  0.90685088  0.72101735    -0.20910
C1573       C  0.31233195  0.88164526  0.75248493    -0.07420
C1574       C  0.35392380  0.87842118  0.76741725     0.13440
C1575       C  0.36545340  0.85007538  0.79925425    -0.24260
H1576       H  0.41676255  0.90222756  0.76549600     0.14720
H1577       H  0.27410635  0.90987036  0.70912988     0.14750
C1578       C  0.32678044  0.95912646  0.67390963    -0.24200
H1579       H  0.39995859  0.84920329  0.80464717     0.04970
H1580       H  0.35497802  0.82066410  0.79406366     0.08190
H1581       H  0.35098839  0.85839317  0.82378895     0.08190
H1582       H  0.34669386  0.95341844  0.65133215     0.08180
H1583       H  0.33210633  0.98912709  0.68037007     0.08180
H1584       H  0.29343887  0.95647587  0.66475985     0.04950
C1585       C  0.65124111  0.84007408  0.47322765    -0.20850
C1586       C  0.68936030  0.85686379  0.96101171    -0.07420
C1587       C  0.68785334  0.89279252  0.93922655     0.13450
C1588       C  0.64916871  0.91137262  0.93255064    -0.20910
C1589       C  0.61332245  0.89781363  0.95042664    -0.07420
C1590       C  0.61359722  0.86084717  0.46941593     0.13440
C1591       C  0.57495252  0.84469087  0.48793962    -0.24260
H1592       H  0.65173253  0.81250314  0.48945223     0.14720
H1593       H  0.64799137  0.93912222  0.91690008     0.14750
C1594       C  0.72670660  0.91469922  0.92663510    -0.24200
H1595       H  0.58041112  0.81537743  0.50172966     0.04970
H1596       H  0.54877934  0.84292131  0.46790695     0.08190
H1597       H  0.56559354  0.86357449  0.50831192     0.08190
H1598       H  0.74373722  0.89838308  0.90818962     0.08180
H1599       H  0.74733709  0.92045053  0.94990257     0.08180
H1600       H  0.71903967  0.94301098  0.91167954     0.04950
C1601       C  0.60802343  0.09536180  0.97277696    -0.20850
C1602       C  0.61372195  0.05891003  0.46130876    -0.07420
C1603       C  0.65261104  0.05000328  0.44731113     0.13450
C1604       C  0.68624629  0.07596730  0.44867078    -0.20910
C1605       C  0.68192216  0.11096139  0.96325692    -0.07420
C1606       C  0.64164747  0.12180214  0.97351812     0.13440
C1607       C  0.63443264  0.16053451  0.98654250    -0.24260
H1608       H  0.57789687  0.10227819  0.98304619     0.14720
H1609       H  0.71725732  0.06672935  0.44227951     0.14750
C1610       C  0.66013452  0.01152253  0.43432755    -0.24200
H1611       H  0.60067464  0.16494667  0.99137800     0.04970
H1612       H  0.64468904  0.18367148  0.96600369     0.08190
H1613       H  0.65205603  0.16328693  0.51209314     0.08190
H1614       H  0.63766723  0.00715256  0.91186476     0.08180
H1615       H  0.65594854  0.98857219  0.45672294     0.08180
H1616       H  0.69245293  0.00924374  0.42447455     0.04950
C1617       C  0.36379879  0.08637829  0.52557536    -0.20850
C1618       C  0.37392734  0.08988965  0.48942178    -0.07420
C1619       C  0.34935439  0.11446572  0.46462971     0.13450
C1620       C  0.31391601  0.13286061  0.47639555    -0.20910
C1621       C  0.30175191  0.12690562  0.51214266    -0.07420
C1622       C  0.32804305  0.10395083  0.53732414     0.13440
C1623       C  0.31807323  0.09575311  0.57651984    -0.24260
H1624       H  0.38270676  0.06781267  0.54454995     0.14720
H1625       H  0.29514607  0.15147537  0.45742205     0.14750
C1626       C  0.36054914  0.12188406  0.42577583    -0.24200
H1627       H  0.34086396  0.07561702  0.59129688     0.04970
H1628       H  0.28648756  0.08225072  0.07935770     0.08190
H1629       H  0.31949305  0.12279271  0.58965264     0.08190
H1630       H  0.35654001  0.09523966  0.91230476     0.08180
H1631       H  0.39359451  0.13224337  0.42377581     0.08180
H1632       H  0.34011501  0.14414081  0.41101595     0.04950
C1633       C  0.36374246  0.90202394  0.97267173    -0.20850
C1634       C  0.37502166  0.93484064  0.98994383    -0.07420
C1635       C  0.35608289  0.94008538  0.52294716     0.13450
C1636       C  0.32622870  0.91357603  0.53671873    -0.20910
C1637       C  0.31308656  0.88230185  0.51862058    -0.07420
C1638       C  0.33353355  0.87513224  0.98719532     0.13440
C1639       C  0.32623401  0.83785646  0.97101506    -0.24260
H1640       H  0.37923889  0.89695586  0.94833092     0.14720
H1641       H  0.31080838  0.91888201  0.56108504     0.14750
C1642       C  0.36465081  0.97465290  0.54341240    -0.24200
H1643       H  0.34432895  0.83689538  0.94631001     0.04970
H1644       H  0.29259323  0.83350007  0.96426136     0.08190
H1645       H  0.33645935  0.81355840  0.49069753     0.08190
H1646       H  0.35967253  0.00157702  0.02539871     0.08180
H1647       H  0.39712050  0.97367993  0.55501666     0.08180
H1648       H  0.34338202  0.97558175  0.56621673     0.04950
loop_ 
_geom_bond_atom_site_label_1 
_geom_bond_atom_site_label_2 
_geom_bond_distance 
_geom_bond_site_symmetry_2 
_ccdc_geom_bond_type 
O1           Ni7   1.977   1_565  S
O1           C22   1.281       .  A
O2          Ni25   1.988   1_554  S
O2           C11   1.291   1_545  A
O3           Ni7   1.934       .  S
O3          Ni19   1.906   1_545  S
O3         Ni849   1.947       .  S
O3           H26   0.966       .  S
C4           O21   1.267       .  A
C4          O837   1.272       .  A
C4          C765   1.470       .  S
O5          Ni24   1.958       .  S
O5           C11   1.273       .  A
O6          Ni24   1.910   1_545  S
O6            C8   1.276   1_554  A
Ni7          O10   1.934       .  S
Ni7          O12   1.941   1_545  S
C8          O842   1.282       .  A
C8          C778   1.474       .  S
O9          Ni25   1.925       .  S
O9           C15   1.279       .  A
O10         C839   1.275       .  A
C11          C48   1.544       .  S
O12          C14   1.281       .  A
O13         Ni24   1.929   1_556  S
O13         C828   1.272       .  A
C14         O844   1.271       .  A
C14         C810   1.492       .  S
C15         O834   1.275       .  A
C15         C794   1.489       .  S
H16          O17   0.966       .  S
O17         Ni25   1.924   1_565  S
O17         Ni24   1.924   1_556  S
O17        Ni843   1.952       .  S
O18         Ni19   1.951   1_545  S
O18         C832   1.282       .  A
Ni19         O23   1.975       .  S
Ni19         O21   1.913       .  S
Ni19        O841   1.952       .  S
O20         Ni25   1.910   1_565  S
O20         C838   1.271       .  A
C22          O23   1.287       .  A
C22          C37   1.550       .  S
Ni25        O827   1.947       .  S
O27         Ni33   1.949       .  S
O27          C48   1.271   1_545  A
O28         Ni51   1.992   1_565  S
O28          C37   1.289       .  A
O29         Ni33   1.929       .  S
O29         Ni51   1.961       .  S
O29         Ni45   1.916   1_545  S
O29          H52   0.966       .  S
C30          O47   1.271       .  A
C30          O39   1.273       .  A
C30         C698   1.468       .  S
O31         Ni50   1.962       .  S
O31          C37   1.276       .  A
O32         Ni50   1.914   1_545  S
O32          C34   1.275       .  A
Ni33         O36   1.908       .  S
Ni33         O38   1.915   1_545  S
C34          O44   1.280       .  A
C34         C714   1.474       .  S
O35         Ni51   1.914       .  S
O35          C41   1.269       .  A
O36          C41   1.269       .  A
O38          C40   1.276       .  A
O39         Ni50   1.925       .  S
C40          O46   1.281       .  A
C40         C746   1.483       .  S
C41         C733   1.471       .  S
H42          O43   0.966       .  S
O43         Ni51   1.911   1_565  S
O43         Ni45   1.959       .  S
O43         Ni50   1.921       .  S
O44         Ni45   1.949   1_545  S
Ni45         O49   1.992       .  S
Ni45         O47   1.915       .  S
O46         Ni51   1.942   1_565  S
C48          O49   1.291       .  A
O53         Ni59   1.897       .  S
O53          C74   1.260       .  A
O54         Ni77   1.914       .  S
O54          C63   1.253       .  A
O55         Ni59   1.906       .  S
O55         Ni71   1.967   1_554  S
O55        Ni901   1.887   1_554  S
O55          H78   0.966       .  S
C56          O65   1.281       .  A
C56         O897   1.276       .  A
C56         C618   1.495       .  S
O57         Ni76   1.898       .  S
O57          C63   1.260       .  A
O58         Ni76   1.896       .  S
O58          C60   1.264       .  A
Ni59         O62   1.940       .  S
Ni59         O64   1.874       .  S
C60         O894   1.271       .  A
C60         C666   1.475       .  S
O61         Ni77   1.901       .  S
O61          C67   1.271       .  A
O62         C891   1.281       .  A
C63         C634   1.481       .  S
O64         C890   1.259   1_554  A
O65         Ni76   1.936       .  S
C66          O72   1.275       .  A
C66         O888   1.259       .  A
C66         C781   1.474       .  S
C67         O886   1.281       .  A
C67         C682   1.476       .  S
H68          O69   0.966       .  S
O69         Ni77   1.951       .  S
O69         Ni76   1.918       .  S
O69        Ni895   1.883       .  S
O70         Ni71   1.946   1_554  S
O70         C884   1.271       .  A
Ni71         O75   1.913   1_556  S
Ni71         O73   1.912       .  S
Ni71        O893   1.883       .  S
O72         Ni77   1.939       .  S
O73         C880   1.276       .  A
C74          O75   1.255       .  A
C74         C653   1.476       .  S
Ni77        O879   1.887       .  S
O79         Ni85   1.904       .  S
O79         C100   1.262       .  A
O80        Ni103   1.923       .  S
O80          C89   1.257       .  A
O81         Ni85   1.892       .  S
O81        Ni103   1.880       .  S
O81         Ni97   1.959       .  S
O81         H104   0.966       .  S
C82          O99   1.276       .  A
C82          O91   1.281       .  A
C82         C570   1.495       .  S
O83        Ni102   1.900       .  S
O83          C89   1.260       .  A
O84        Ni102   1.893       .  S
O84          C86   1.264       .  A
Ni85         O88   1.946       .  S
Ni85         O90   1.883       .  S
C86          O96   1.273       .  A
C86         C589   1.475       .  S
O87        Ni103   1.901       .  S
O87          C93   1.274       .  A
O88          C93   1.285       .  A
C89         C650   1.481       .  S
O90          C92   1.259       .  A
O91        Ni102   1.936       .  S
C92          O98   1.276       .  A
C92         C717   1.478       .  S
C93         C602   1.482       .  S
H94          O95   0.966       .  S
O95        Ni103   1.950       .  S
O95         Ni97   1.885       .  S
O95        Ni102   1.913       .  S
O96         Ni97   1.953       .  S
Ni97        O101   1.909       .  S
Ni97         O99   1.912       .  S
O98        Ni103   1.948       .  S
C100        O101   1.259       .  A
C100        C637   1.469       .  S
O105       Ni111   1.912       .  S
O105        C126   1.259       .  A
O106       Ni129   1.908       .  S
O106        C115   1.258       .  A
O107       Ni111   1.909       .  S
O107       Ni123   1.952       .  S
O107       Ni953   1.886       .  S
O107        H130   0.966       .  S
C108        O125   1.272       .  A
C108        O941   1.283       .  A
C108        C554   1.476       .  S
O109       Ni128   1.904       .  S
O109        C115   1.260       .  A
O110       Ni128   1.880       .  S
O110        C112   1.258       .  A
Ni111       O114   1.967       .  S
Ni111       O116   1.874       .  S
C112        O946   1.280       .  A
C112        C797   1.498       .  S
O113       Ni129   1.900   1_556  S
O113        C119   1.273       .  A
O114        C943   1.286       .  A
C115        C538   1.467       .  S
O116        C118   1.258       .  A
O117       Ni128   1.952       .  S
O117        C932   1.283       .  A
C118        O948   1.277       .  A
C118        C669   1.480       .  S
C119        O938   1.286       .  A
C119        C506   1.497       .  S
H120        O121   0.966       .  S
O121       Ni129   1.959       .  S
O121       Ni128   1.898       .  S
O121       Ni947   1.880       .  S
O122       Ni123   1.958       .  S
O122        C936   1.280       .  A
Ni123       O127   1.915       .  S
Ni123       O125   1.887       .  S
Ni123       O945   1.880       .  S
O124       Ni129   1.970       .  S
O124        C942   1.277       .  A
C126        O127   1.253       .  A
C126        C522   1.465       .  S
Ni129       O931   1.886   1_554  S
O131       Ni137   1.902       .  S
O131        C152   1.255       .  A
O132       Ni155   1.911       .  S
O132        C141   1.256       .  A
O133       Ni137   1.917       .  S
O133       Ni155   1.881       .  S
O133       Ni149   1.954       .  S
O133        H156   0.965       .  S
C134        O151   1.281       .  A
C134        O143   1.280       .  A
C134        C493   1.469       .  S
O135       Ni154   1.892       .  S
O135        C141   1.259       .  A
O136       Ni154   1.880       .  S
O136        C138   1.257       .  A
Ni137       O140   1.950       .  S
Ni137       O142   1.871       .  S
C138        O148   1.272       .  A
C138        C730   1.471       .  S
O139       Ni155   1.903       .  S
O139        C145   1.273       .  A
O140        C145   1.283       .  A
C141        C525   1.473       .  S
O142        C144   1.257       .  A
O143       Ni154   1.920       .  S
C144        O150   1.273       .  A
C144        C586   1.470       .  S
C145        C477   1.482       .  S
H146        O147   0.966       .  S
O147       Ni155   1.954       .  S
O147       Ni149   1.879       .  S
O147       Ni154   1.902       .  S
O148       Ni149   1.929       .  S
Ni149       O153   1.928       .  S
Ni149       O151   1.918       .  S
O150       Ni155   1.953       .  S
C152        O153   1.257       .  A
C152        C541   1.482       .  S
O157       Ni163   1.890       .  S
O157        C178   1.256       .  A
O158       Ni181   1.926       .  S
O158        C167   1.258       .  A
O159       Ni163   1.909       .  S
O159       Ni175   1.959       .  S
O159      Ni1005   1.885       .  S
O159        H182   0.965       .  S
C160        O177   1.273       .  A
C160        O993   1.287   1_554  A
C160        C413   1.470       .  S
O161       Ni180   1.899       .  S
O161        C167   1.254       .  A
O162       Ni180   1.880       .  S
O162        C164   1.251       .  A
Ni163       O166   1.926       .  S
Ni163       O168   1.888       .  S
C164        O998   1.275       .  A
C164        C461   1.474       .  S
O165       Ni181   1.926       .  S
O165        C171   1.283       .  A
O166        C995   1.281       .  A
C167        C426   1.478       .  S
O168        C170   1.262       .  A
O169       Ni180   1.958       .  S
O169        C984   1.287       .  A
C170       O1000   1.270       .  A
C170        C813   1.481       .  S
C171        O990   1.281       .  A
C171        C557   1.480       .  S
H172        O173   0.967       .  S
O173       Ni181   1.947       .  S
O173       Ni180   1.900       .  S
O173       Ni999   1.898       .  S
O174       Ni175   1.970       .  S
O174        C988   1.275       .  A
Ni175       O179   1.922       .  S
Ni175       O177   1.899       .  S
Ni175       O997   1.898       .  S
O176       Ni181   1.939       .  S
O176        C994   1.270       .  A
C178        O179   1.258       .  A
C178        C445   1.468       .  S
Ni181       O983   1.885       .  S
O183       Ni189   1.897       .  S
O183        C204   1.264       .  A
O184       Ni207   1.920       .  S
O184        C193   1.250       .  A
O185       Ni189   1.905       .  S
O185       Ni207   1.876       .  S
O185       Ni201   1.956       .  S
O185        H208   0.966       .  S
C186        O203   1.278       .  A
C186        O195   1.281       .  A
C186        C378   1.489       .  S
O187       Ni206   1.891       .  S
O187        C193   1.254       .  A
O188       Ni206   1.875       .  S
O188        C190   1.261       .  A
Ni189       O192   1.937       .  S
Ni189       O194   1.896       .  S
C190        O200   1.275       .  A
C190        C394   1.472       .  S
O191       Ni207   1.900       .  S
O191        C197   1.276       .  A
O192        C197   1.282       .  A
C193        C442   1.465       .  S
O194        C196   1.261       .  A
O195       Ni206   1.919       .  S
C196        O202   1.268       .  A
C196        C749   1.498       .  S
C197        C490   1.476       .  S
H198        O199   0.963       .  S
O199       Ni207   1.965       .  S
O199       Ni201   1.889       .  S
O199       Ni206   1.908       .  S
O200       Ni201   1.950       .  S
Ni201       O205   1.911       .  S
Ni201       O203   1.926       .  S
O202       Ni207   1.925       .  S
C204        O205   1.259       .  A
C204        C429   1.481       .  S
O209       Ni215   1.881       .  S
O209        C230   1.253       .  A
O210       Ni233   1.919       .  S
O210        C219   1.257       .  A
O211       Ni215   1.917       .  S
O211       Ni227   1.970       .  S
O211      Ni1057   1.890       .  S
O211        H234   0.965       .  S
C212        O229   1.279       .  A
C212       O1045   1.280       .  A
C212        C685   1.485       .  S
O213       Ni232   1.894       .  S
O213        C219   1.264       .  A
O214       Ni232   1.893       .  S
O214       C1040   1.265   1_554  A
Ni215       O218   1.902       .  S
Ni215       O220   1.882       .  S
C216        O226   1.270       .  A
C216       O1038   1.265       .  A
C216        C762   1.491       .  S
O217       Ni233   1.943   1_556  S
O217        C223   1.284       .  A
O218       C1047   1.276       .  A
C219        C362   1.489       .  S
O220        C222   1.260       .  A
O221       Ni232   1.937       .  S
O221       C1036   1.280       .  A
C222       O1052   1.266       .  A
C222        C458   1.459       .  S
C223       O1042   1.276       .  A
C223        C330   1.495       .  S
H224        O225   0.966       .  S
O225       Ni233   1.966       .  S
O225       Ni232   1.905       .  S
O225      Ni1051   1.883   1_554  S
O226       Ni227   1.933       .  S
Ni227       O231   1.928       .  S
Ni227       O229   1.915       .  S
Ni227      O1049   1.883       .  S
O228       Ni233   1.918       .  S
O228       C1046   1.266       .  A
C230        O231   1.255       .  A
C230        C346   1.480       .  S
Ni233      O1035   1.890   1_554  S
O235       Ni241   1.891       .  S
O235        C256   1.255       .  A
O236       Ni259   1.921       .  S
O236        C245   1.258       .  A
O237       Ni241   1.918       .  S
O237       Ni259   1.897       .  S
O237       Ni253   1.959       .  S
O237        H260   0.966       .  S
C238        O255   1.287       .  A
C238        O247   1.279       .  A
C238        C605   1.485       .  S
O239       Ni258   1.887       .  S
O239        C245   1.260       .  A
O240       Ni258   1.893       .  S
O240        C242   1.262       .  A
Ni241       O244   1.927       .  S
Ni241       O246   1.883       .  S
C242        O252   1.269       .  A
C242        C701   1.476       .  S
O243       Ni259   1.912       .  S
O243        C249   1.274       .  A
O244        C249   1.278       .  A
C245        C349   1.473       .  S
O246        C248   1.261       .  A
O247       Ni258   1.918       .  S
C248        O254   1.272       .  A
C248        C397   1.473       .  S
C249        C314   1.467       .  S
H250        O251   0.966       .  S
O251       Ni259   1.962       .  S
O251       Ni253   1.883       .  S
O251       Ni258   1.905       .  S
O252       Ni253   1.924       .  S
Ni253       O257   1.933       .  S
Ni253       O255   1.938       .  S
O254       Ni259   1.946       .  S
C256        O257   1.260       .  A
C256        C365   1.492       .  S
O261       Ni267   1.962       .  S
O261        C282   1.275       .  A
O262       Ni285   1.985   1_554  S
O262        C271   1.288   1_455  A
O263       Ni267   1.929       .  S
O263       Ni279   1.922   1_455  S
O263      Ni1109   1.957       .  S
O263        H286   0.966       .  S
C264        O281   1.274       .  A
C264       O1097   1.272       .  A
C264        C621   1.473       .  S
O265       Ni284   1.961       .  S
O265        C271   1.274       .  A
O266       Ni284   1.912   1_455  S
O266        C268   1.274   1_554  A
Ni267       O270   1.930       .  S
Ni267       O272   1.911   1_455  S
C268       O1102   1.281       .  A
C268        C509   1.494       .  S
O269       Ni285   1.908       .  S
O269        C275   1.269       .  A
O270       C1099   1.273       .  A
C271        C308   1.544       .  S
O272        C274   1.275       .  A
O273       Ni284   1.916   1_556  S
O273       C1088   1.272       .  A
C274       O1104   1.283       .  A
C274        C333   1.501       .  S
C275       O1094   1.273       .  A
C275        C410   1.475       .  S
H276        O277   0.966       .  S
O277       Ni285   1.905   1_655  S
O277       Ni284   1.925   1_556  S
O277      Ni1103   1.957       .  S
O278       Ni279   1.941   1_455  S
O278       C1092   1.281       .  A
Ni279       O283   1.988       .  S
Ni279       O281   1.918       .  S
Ni279      O1101   1.957       .  S
O280       Ni285   1.951   1_655  S
O280       C1098   1.283       .  A
C282        O283   1.291   1_455  A
C282        C297   1.548       .  S
Ni285      O1087   1.957       .  S
O287       Ni293   1.965       .  S
O287        C308   1.277   1_455  A
O288       Ni311   1.994       .  S
O288        C297   1.291       .  A
O289       Ni293   1.924       .  S
O289       Ni311   1.948       .  S
O289       Ni305   1.904   1_455  S
O289        H312   0.966       .  S
C290        O307   1.270       .  A
C290        O299   1.270       .  A
C290        C573   1.473       .  S
O291       Ni310   1.956       .  S
O291        C297   1.273   1_655  A
O292       Ni310   1.908   1_455  S
O292        C294   1.279       .  A
Ni293       O296   1.923       .  S
Ni293       O298   1.923   1_455  S
C294        O304   1.279       .  A
C294        C474   1.495       .  S
O295       Ni311   1.930       .  S
O295        C301   1.278       .  A
O296        C301   1.271       .  A
O298        C300   1.279       .  A
O299       Ni310   1.923       .  S
C300        O306   1.274       .  A
C300        C317   1.492       .  S
C301        C381   1.488       .  S
H302        O303   0.966       .  S
O303       Ni311   1.930   1_655  S
O303       Ni305   1.961       .  S
O303       Ni310   1.924       .  S
O304       Ni305   1.945   1_455  S
Ni305       O309   1.981       .  S
Ni305       O307   1.915       .  S
O306       Ni311   1.927   1_655  S
C308        O309   1.288       .  A
C313        C314   1.395       .  A
C313        C318   1.399       .  A
C313        H320   1.085       .  S
C314        C315   1.406       .  A
C315        C316   1.407       .  A
C315        C322   1.504       .  S
C316        C317   1.410       .  A
C316        H321   1.084       .  S
C317        C318   1.428       .  A
C318        C319   1.512       .  S
C319        H323   1.111       .  S
C319        H324   1.111       .  S
C319        H325   1.110       .  S
C322        H326   1.104       .  S
C322        H327   1.110       .  S
C322        H328   1.111       .  S
C329        C334   1.404       .  A
C329       C1154   1.407       .  A
C329       H1160   1.084       .  S
C330       C1153   1.407       .  A
C330       C1155   1.417       .  A
C331        C332   1.409       .  A
C331       C1154   1.417       .  A
C331        C338   1.509       .  S
C332        C333   1.411       .  A
C332        H337   1.083       .  S
C333        C334   1.423       .  A
C334        C335   1.511       .  S
C335        H339   1.111       .  S
C335        H340   1.110       .  S
C335       H1165   1.110       .  S
H336       C1153   1.084       .  S
C338        H342   1.110       .  S
C338        H344   1.111       .  S
C338       H1167   1.109       .  S
H341       C1159   1.110       .  S
H343       C1162   1.109       .  S
C345        C346   1.404       .  A
C345        C350   1.394       .  A
C345        H352   1.073       .  S
C346        C347   1.416       .  A
C347        C348   1.396       .  A
C347        C354   1.507       .  S
C348        C349   1.404       .  A
C348        H353   1.083       .  S
C349        C350   1.411       .  A
C350        C351   1.508       .  S
C351        H355   1.111       .  S
C351        H356   1.109       .  S
C351        H357   1.111       .  S
C354        H358   1.110       .  S
C354        H359   1.109       .  S
C354        H360   1.102       .  S
C361        C362   1.408       .  A
C361        C366   1.397       .  A
C361        H368   1.085       .  S
C362        C363   1.419       .  A
C363        C364   1.399       .  A
C363        C370   1.511       .  S
C364        C365   1.410       .  A
C364        H369   1.085       .  S
C365        C366   1.412       .  A
C366        C367   1.502       .  S
C367        H371   1.106       .  S
C367        H372   1.107       .  S
C367        H373   1.105       .  S
C370        H374   1.104       .  S
C370        H375   1.104       .  S
C370        H376   1.109       .  S
C377        C378   1.401       .  A
C377        C382   1.399       .  A
C377        H384   1.085       .  S
C378        C379   1.421       .  A
C379        C380   1.411       .  A
C379        C386   1.508       .  S
C380        C381   1.404       .  A
C380        H385   1.084       .  S
C381        C382   1.422       .  A
C382        C383   1.512       .  S
C383        H387   1.111       .  S
C383        H388   1.109       .  S
C383        H389   1.110       .  S
C386        H390   1.106       .  S
C386        H391   1.110       .  S
C386        H392   1.111       .  S
C393        C394   1.403       .  A
C393        C398   1.402   1_455  A
C393        H400   1.085       .  S
C394        C395   1.414       .  A
C395        C396   1.406   1_455  A
C395        C402   1.503       .  S
C396        C397   1.401       .  A
C396        H401   1.084       .  S
C397        C398   1.415       .  A
C398        C399   1.511       .  S
C399        H403   1.111       .  S
C399        H404   1.109       .  S
C399        H405   1.109       .  S
C402        H406   1.110       .  S
C402        H407   1.110       .  S
C402        H408   1.111       .  S
C409        C410   1.408       .  A
C409        C414   1.403       .  A
C409        H416   1.084       .  S
C410        C411   1.418   1_556  A
C411        C412   1.401       .  A
C411        C418   1.509       .  S
C412        C413   1.400       .  A
C412        H417   1.083       .  S
C413        C414   1.405   1_554  A
C414        C415   1.505       .  S
C415        H419   1.111       .  S
C415        H420   1.110       .  S
C415       H1245   1.105       .  S
C418        H422   1.102       .  S
C418        H424   1.110       .  S
C418       H1247   1.110       .  S
H421       C1239   1.105       .  S
H423       C1242   1.110       .  S
C425        C426   1.409       .  A
C425        C430   1.392       .  A
C425        H432   1.085       .  S
C426        C427   1.408       .  A
C427        C428   1.399       .  A
C427        C434   1.512       .  S
C428        C429   1.413       .  A
C428        H433   1.085       .  S
C429        C430   1.415       .  A
C430        C431   1.513       .  S
C431        H435   1.109       .  S
C431        H436   1.106       .  S
C431        H437   1.108       .  S
C434        H438   1.103       .  S
C434        H439   1.109       .  S
C434        H440   1.111       .  S
C441        C442   1.401       .  A
C441        C446   1.396       .  A
C441        H448   1.077       .  S
C442        C443   1.401       .  A
C443        C444   1.391       .  A
C443        C450   1.496       .  S
C444        C445   1.403       .  A
C444        H449   1.082       .  S
C445        C446   1.415       .  A
C446        C447   1.507       .  S
C447        H451   1.111       .  S
C447        H452   1.110       .  S
C447        H453   1.110       .  S
C450        H454   1.110       .  S
C450        H455   1.110       .  S
C450        H456   1.106       .  S
C457        C462   1.399   1_655  A
C457       C1282   1.393       .  A
C457        H464   1.085       .  S
C458        C459   1.408       .  A
C458       C1281   1.393       .  A
C459        C460   1.400   1_655  A
C459        C466   1.509       .  S
C460        C461   1.404       .  A
C460        H465   1.077       .  S
C461       C1286   1.418       .  A
C462       C1285   1.418       .  A
C462        C463   1.498       .  S
C463        H467   1.111   1_455  S
C463        H468   1.109       .  S
C463        H469   1.102       .  S
C466        H470   1.110       .  S
C466        H471   1.108       .  S
C466        H472   1.110   1_655  S
C473        C474   1.404       .  A
C473        C478   1.395       .  A
C473        H480   1.084       .  S
C474        C475   1.424       .  A
C475        C476   1.411       .  A
C475        C482   1.509       .  S
C476        C477   1.403       .  A
C476        H481   1.084       .  S
C477        C478   1.416       .  A
C478        C479   1.506       .  S
C479        H483   1.111       .  S
C479        H484   1.109       .  S
C479        H485   1.106       .  S
C482        H486   1.110       .  S
C482        H487   1.104       .  S
C482        H488   1.111       .  S
C489        C490   1.406       .  A
C489        C494   1.399   1_565  A
C489        H496   1.084       .  S
C490        C491   1.414       .  A
C491        C492   1.404   1_565  A
C491        C498   1.508       .  S
C492        C493   1.404       .  A
C492        H497   1.085       .  S
C493        C494   1.409       .  A
C494        C495   1.509       .  S
C495        H499   1.111       .  S
C495        H500   1.109       .  S
C495        H501   1.110       .  S
C498        H502   1.111       .  S
C498        H503   1.108       .  S
C498        H504   1.111       .  S
C505        C506   1.409       .  A
C505        C510   1.405   1_556  A
C505        H512   1.084   1_556  S
C506       C1331   1.414       .  A
C507        C508   1.404       .  A
C507       C1330   1.414       .  A
C507        C514   1.498       .  S
C508       C1333   1.406       .  A
C508        H513   1.082       .  S
C509        C510   1.418   1_556  A
C509       C1332   1.406       .  A
C510        C511   1.509       .  S
C511        H515   1.111       .  S
C511        H516   1.109       .  S
C511        H517   1.110       .  S
C514        H518   1.107       .  S
C514        H519   1.108       .  S
C514        H520   1.111       .  S
C521        C522   1.399       .  A
C521        C526   1.384       .  A
C521        H528   1.086       .  S
C522        C523   1.412       .  A
C523        C524   1.397       .  A
C523        C530   1.512       .  S
C524        C525   1.410       .  A
C524        H529   1.085       .  S
C525        C526   1.411       .  A
C526        C527   1.499       .  S
C527        H531   1.100       .  S
C527        H532   1.103       .  S
C527        H533   1.105       .  S
C530        H534   1.110       .  S
C530        H535   1.103       .  S
C530        H536   1.110       .  S
C537        C538   1.403       .  A
C537        C542   1.396       .  A
C537        H544   1.086       .  S
C538        C539   1.404       .  A
C539        C540   1.389       .  A
C539        C546   1.507       .  S
C540        C541   1.411       .  A
C540        H545   1.085       .  S
C541        C542   1.418       .  A
C542        C543   1.504       .  S
C543        H547   1.110       .  S
C543        H548   1.104       .  S
C543        H549   1.105       .  S
C546        H550   1.108       .  S
C546        H551   1.110       .  S
C546        H552   1.109       .  S
C553        C554   1.401       .  A
C553        C558   1.390   1_545  A
C553        H560   1.087       .  S
C554        C555   1.409       .  A
C555        C556   1.415   1_545  A
C555        C562   1.503       .  S
C556        C557   1.412       .  A
C556        H561   1.084       .  S
C557        C558   1.416       .  A
C558        C559   1.510       .  S
C559        H563   1.110       .  S
C559        H564   1.101       .  S
C559       H1389   1.109       .  S
C562        H566   1.110       .  S
C562        H568   1.111       .  S
C562       H1391   1.109       .  S
H565       C1383   1.109       .  S
H567       C1386   1.109       .  S
C569        C570   1.410       .  A
C569        C574   1.402       .  A
C569        H576   1.083       .  S
C570        C571   1.422       .  A
C571        C572   1.405       .  A
C571        C578   1.507       .  S
C572        C573   1.400       .  A
C572        H577   1.085       .  S
C573        C574   1.407       .  A
C574        C575   1.503       .  S
C575        H579   1.111       .  S
C575        H580   1.108       .  S
C575        H581   1.110       .  S
C578        H582   1.108       .  S
C578        H583   1.110       .  S
C578        H584   1.111       .  S
C585        C586   1.403       .  A
C585        C590   1.407   1_455  A
C585        H592   1.085       .  S
C586        C587   1.412       .  A
C587        C588   1.403   1_455  A
C587        C594   1.508       .  S
C588        C589   1.403       .  A
C588        H593   1.085       .  S
C589        C590   1.414       .  A
C590        C591   1.507       .  S
C591        H595   1.111       .  S
C591        H596   1.108       .  S
C591        H597   1.109       .  S
C594        H598   1.110       .  S
C594        H599   1.110       .  S
C594        H600   1.111       .  S
C601        C602   1.404       .  A
C601        C606   1.409   1_545  A
C601        H608   1.084       .  S
C602        C603   1.418       .  A
C603        C604   1.401   1_545  A
C603        C610   1.510       .  S
C604        C605   1.401       .  A
C604        H609   1.084       .  S
C605        C606   1.419       .  A
C606        C607   1.507       .  S
C607        H611   1.111       .  S
C607        H612   1.109       .  S
C607        H613   1.111       .  S
C610        H614   1.110       .  S
C610        H615   1.108       .  S
C610        H616   1.111       .  S
C617        C618   1.412       .  A
C617        C622   1.404       .  A
C617        H624   1.083       .  S
C618       C1443   1.422       .  A
C619        C620   1.403       .  A
C619       C1442   1.422       .  A
C619        C626   1.508       .  S
C620       C1445   1.401       .  A
C620        H625   1.085       .  S
C621        C622   1.407       .  A
C621       C1444   1.401       .  A
C622        C623   1.506       .  S
C623        H627   1.111       .  S
C623        H628   1.108       .  S
C623        H629   1.110       .  S
C626        H630   1.109   1_556  S
C626        H632   1.111   1_556  S
C626       H1455   1.110       .  S
H631       C1450   1.110       .  S
C633        C634   1.410       .  A
C633        C638   1.392       .  A
C633        H640   1.083       .  S
C634        C635   1.420       .  A
C635        C636   1.395       .  A
C635        C642   1.506       .  S
C636        C637   1.400       .  A
C636        H641   1.086       .  S
C637        C638   1.405       .  A
C638        C639   1.505       .  S
C639        H643   1.107       .  S
C639        H644   1.110       .  S
C639        H645   1.108       .  S
C642        H646   1.103       .  S
C642        H647   1.106       .  S
C642        H648   1.110       .  S
C649        C650   1.410       .  A
C649        C654   1.395       .  A
C649        H656   1.084       .  S
C650        C651   1.414       .  A
C651        C652   1.392       .  A
C651        C658   1.507       .  S
C652        C653   1.404       .  A
C652        H657   1.085       .  S
C653        C654   1.412       .  A
C654        C655   1.509       .  S
C655        H659   1.107       .  S
C655        H660   1.108       .  S
C655        H661   1.108       .  S
C658        H662   1.094       .  S
C658        H663   1.110       .  S
C658        H664   1.111       .  S
C665        C670   1.407   1_655  A
C665       C1490   1.402       .  A
C665        H672   1.085       .  S
C666        C667   1.410       .  A
C666       C1489   1.402       .  A
C667        C668   1.405   1_655  A
C667        C674   1.508       .  S
C668        C669   1.407       .  A
C668        H673   1.084       .  S
C669       C1494   1.415       .  A
C670       C1493   1.415       .  A
C670        C671   1.503       .  S
C671        H675   1.111       .  S
C671        H676   1.104       .  S
C671        H677   1.108       .  S
C674        H678   1.110       .  S
C674        H679   1.111       .  S
C674        H680   1.111       .  S
C681        C686   1.409   1_545  A
C681       C1506   1.403       .  A
C681        H688   1.084       .  S
C682        C683   1.414       .  A
C682       C1505   1.403       .  A
C683        C684   1.402   1_545  A
C683        C690   1.510       .  S
C684        C685   1.404       .  A
C684        H689   1.084       .  S
C685       C1510   1.418       .  A
C686       C1509   1.418       .  A
C686        C687   1.508       .  S
C687        H691   1.111       .  S
C687        H692   1.109       .  S
C687        H693   1.111       .  S
C690        H694   1.110       .  S
C690        H695   1.109       .  S
C690        H696   1.111       .  S
C697        C698   1.398       .  A
C697        C702   1.401       .  A
C697        H704   1.084       .  S
C698        C699   1.411       .  A
C699        C700   1.406       .  A
C699        C706   1.506       .  S
C700        C701   1.404       .  A
C700        H705   1.084       .  S
C701        C702   1.417       .  A
C702        C703   1.507       .  S
C703        H707   1.110       .  S
C703        H708   1.098       .  S
C703        H709   1.109       .  S
C706        H710   1.110       .  S
C706        H711   1.110       .  S
C706        H712   1.111       .  S
C713        C714   1.397       .  A
C713        C718   1.400       .  A
C713        H720   1.083       .  S
C714        C715   1.409       .  A
C715        C716   1.411       .  A
C715        C722   1.505       .  S
C716        C717   1.409       .  A
C716        H721   1.084       .  S
C717        C718   1.416       .  A
C718        C719   1.505       .  S
C719        H723   1.105       .  S
C719        H724   1.100       .  S
C719        H725   1.103       .  S
C722        H726   1.110       .  S
C722        H727   1.110       .  S
C722        H728   1.111       .  S
C729        C730   1.408       .  A
C729        C734   1.409       .  A
C729        H736   1.084       .  S
C730        C731   1.414       .  A
C731        C732   1.389       .  A
C731        C738   1.506       .  S
C732        C733   1.399       .  A
C732        H737   1.084       .  S
C733        C734   1.411       .  A
C734        C735   1.505       .  S
C735        H739   1.111       .  S
C735        H740   1.110       .  S
C735        H741   1.110       .  S
C738        H742   1.098       .  S
C738        H743   1.102       .  S
C738        H744   1.111       .  S
C745        C746   1.403       .  A
C745        C750   1.406       .  A
C745        H752   1.084       .  S
C746        C747   1.413       .  A
C747        C748   1.404       .  A
C747        C754   1.509       .  S
C748        C749   1.410       .  A
C748        H753   1.082       .  S
C749        C750   1.423       .  A
C750        C751   1.509       .  S
C751        H755   1.111       .  S
C751        H756   1.110       .  S
C751        H757   1.109       .  S
C754        H758   1.110       .  S
C754        H759   1.110       .  S
C754        H760   1.111       .  S
C761        C766   1.404       .  A
C761       C1586   1.410       .  A
C761        H768   1.084       .  S
C762        C763   1.425       .  A
C762       C1585   1.410       .  A
C763        C764   1.402       .  A
C763        C770   1.509       .  S
C764        C765   1.395       .  A
C764        H769   1.080       .  S
C765       C1590   1.408       .  A
C766       C1589   1.408       .  A
C766        C767   1.506       .  S
C767        H771   1.111   1_556  S
C767        H772   1.110       .  S
C767        H773   1.110   1_556  S
C770        H774   1.101       .  S
C770        H775   1.110       .  S
C770        H776   1.111       .  S
C777        C782   1.406       .  A
C777       C1602   1.401       .  A
C777        H784   1.084       .  S
C778        C779   1.411       .  A
C778       C1601   1.401       .  A
C779        C780   1.397       .  A
C779        C786   1.501       .  S
C780       C1605   1.400       .  A
C780        H785   1.084       .  S
C781        C782   1.417       .  A
C781       C1604   1.400       .  A
C782        C783   1.508       .  S
C783        H787   1.111       .  S
C783        H788   1.110       .  S
C783       H1613   1.108       .  S
C786        H791   1.109   1_545  S
C786        H792   1.111       .  S
C786       H1614   1.110       .  S
H789       C1607   1.108   1_554  S
H790       C1610   1.110       .  S
C793        C794   1.397   1_554  A
C793        C798   1.404       .  A
C793        H800   1.084       .  S
C794        C795   1.421       .  A
C795        C796   1.410       .  A
C795        C802   1.507       .  S
C796        C797   1.402   1_556  A
C796        H801   1.083       .  S
C797        C798   1.430       .  A
C798        C799   1.512       .  S
C799        H803   1.111       .  S
C799        H805   1.110       .  S
C799       H1628   1.109       .  S
C802        H807   1.110       .  S
C802        H808   1.111       .  S
C802       H1630   1.109       .  S
H804       C1623   1.109       .  S
H806       C1626   1.109       .  S
C809        C810   1.412       .  A
C809        C814   1.417       .  A
C809        H816   1.083       .  S
C810       C1635   1.424       .  A
C811        C812   1.391       .  A
C811       C1634   1.424   1_554  A
C811        C818   1.515       .  S
C812        C813   1.398       .  A
C812        H817   1.085       .  S
C813       C1638   1.411   1_554  A
C814       C1637   1.411       .  A
C814        C815   1.505       .  S
C815        H819   1.111       .  S
C815        H820   1.105       .  S
C815       H1645   1.110       .  S
C818        H823   1.108       .  S
C818        H824   1.111       .  S
C818       H1646   1.109   1_565  S
H821       C1639   1.110       .  S
H822       C1642   1.109   1_545  S
O825       Ni831   1.977   1_565  S
O825        C846   1.281       .  A
O826       Ni849   1.988       .  S
O826        C835   1.291   1_545  A
O827       Ni831   1.934       .  S
O827       Ni843   1.906   1_545  S
O827        H850   0.966       .  S
C828        O845   1.267       .  A
C828       C1589   1.470       .  S
O829       Ni848   1.958       .  S
O829        C835   1.273       .  A
O830       Ni848   1.910   1_545  S
O830        C832   1.276       .  A
Ni831       O834   1.934       .  S
Ni831       O836   1.941   1_545  S
C832       C1602   1.474       .  S
O833       Ni849   1.925       .  S
O833        C839   1.279       .  A
C835        C872   1.544       .  S
O836        C838   1.281       .  A
O837       Ni848   1.929       .  S
C838       C1634   1.492       .  S
C839       C1618   1.489       .  S
H840        O841   0.966       .  S
O841       Ni849   1.924   1_565  S
O841       Ni848   1.924       .  S
O842       Ni843   1.951   1_545  S
Ni843       O847   1.975       .  S
Ni843       O845   1.913       .  S
O844       Ni849   1.910   1_565  S
C846        O847   1.287       .  A
C846        C861   1.550       .  S
O851       Ni857   1.949       .  S
O851        C872   1.271   1_545  A
O852       Ni875   1.992   1_565  S
O852        C861   1.289       .  A
O853       Ni857   1.929       .  S
O853       Ni875   1.961       .  S
O853       Ni869   1.916   1_545  S
O853        H876   0.966       .  S
C854        O871   1.271       .  A
C854        O863   1.273       .  A
C854       C1522   1.468       .  S
O855       Ni874   1.962       .  S
O855        C861   1.276       .  A
O856       Ni874   1.914   1_545  S
O856        C858   1.275       .  A
Ni857       O860   1.908       .  S
Ni857       O862   1.915   1_545  S
C858        O868   1.280       .  A
C858       C1538   1.474       .  S
O859       Ni875   1.914       .  S
O859        C865   1.269       .  A
O860        C865   1.269       .  A
O862        C864   1.276       .  A
O863       Ni874   1.925       .  S
C864        O870   1.281       .  A
C864       C1570   1.483       .  S
C865       C1557   1.471       .  S
H866        O867   0.966       .  S
O867       Ni875   1.911   1_565  S
O867       Ni869   1.959       .  S
O867       Ni874   1.921       .  S
O868       Ni869   1.949   1_545  S
Ni869       O873   1.992       .  S
Ni869       O871   1.915       .  S
O870       Ni875   1.942   1_565  S
C872        O873   1.291       .  A
O877       Ni883   1.897       .  S
O877        C898   1.260       .  A
O878       Ni901   1.914       .  S
O878        C887   1.253       .  A
O879       Ni883   1.906       .  S
O879       Ni895   1.967       .  S
O879        H902   0.966       .  S
C880        O889   1.281       .  A
C880       C1442   1.495       .  S
O881       Ni900   1.898       .  S
O881        C887   1.260       .  A
O882       Ni900   1.896       .  S
O882        C884   1.264   1_556  A
Ni883       O886   1.940       .  S
Ni883       O888   1.874       .  S
C884       C1490   1.475       .  S
O885       Ni901   1.901       .  S
O885        C891   1.271   1_556  A
C887       C1458   1.481       .  S
O889       Ni900   1.936       .  S
C890        O896   1.275       .  A
C890       C1605   1.474       .  S
C891       C1506   1.476       .  S
H892        O893   0.966       .  S
O893       Ni901   1.951       .  S
O893       Ni900   1.918       .  S
O894       Ni895   1.946       .  S
Ni895       O899   1.913       .  S
Ni895       O897   1.912       .  S
O896       Ni901   1.939       .  S
C898        O899   1.255       .  A
C898       C1477   1.476       .  S
O903       Ni909   1.904       .  S
O903        C924   1.262       .  A
O904       Ni927   1.923       .  S
O904        C913   1.257       .  A
O905       Ni909   1.892       .  S
O905       Ni927   1.880       .  S
O905       Ni921   1.959       .  S
O905        H928   0.966       .  S
C906        O923   1.276       .  A
C906        O915   1.281       .  A
C906       C1394   1.495       .  S
O907       Ni926   1.900       .  S
O907        C913   1.260       .  A
O908       Ni926   1.893       .  S
O908        C910   1.264       .  A
Ni909       O912   1.946       .  S
Ni909       O914   1.883       .  S
C910        O920   1.273       .  A
C910       C1413   1.475       .  S
O911       Ni927   1.901       .  S
O911        C917   1.274       .  A
O912        C917   1.285       .  A
C913       C1474   1.481       .  S
O914        C916   1.259       .  A
O915       Ni926   1.936       .  S
C916        O922   1.276       .  A
C916       C1541   1.478       .  S
C917       C1426   1.482       .  S
H918        O919   0.966       .  S
O919       Ni927   1.950       .  S
O919       Ni921   1.885       .  S
O919       Ni926   1.913       .  S
O920       Ni921   1.953       .  S
Ni921       O925   1.909       .  S
Ni921       O923   1.912       .  S
O922       Ni927   1.948       .  S
C924        O925   1.259       .  A
C924       C1461   1.469       .  S
O929       Ni935   1.912       .  S
O929        C950   1.259       .  A
O930       Ni953   1.908       .  S
O930        C939   1.258       .  A
O931       Ni935   1.909       .  S
O931       Ni947   1.952   1_556  S
O931        H954   0.966       .  S
C932        O949   1.272       .  A
C932       C1378   1.476       .  S
O933       Ni952   1.904       .  S
O933        C939   1.260       .  A
O934       Ni952   1.880       .  S
O934        C936   1.258       .  A
Ni935       O938   1.967       .  S
Ni935       O940   1.874       .  S
C936       C1621   1.498       .  S
O937       Ni953   1.900       .  S
O937        C943   1.273       .  A
C939       C1362   1.467       .  S
O940        C942   1.258   1_556  A
O941       Ni952   1.952       .  S
C942       C1493   1.480       .  S
C943       C1330   1.497       .  S
H944        O945   0.966       .  S
O945       Ni953   1.959       .  S
O945       Ni952   1.898       .  S
O946       Ni947   1.958       .  S
Ni947       O951   1.915   1_554  S
Ni947       O949   1.887       .  S
O948       Ni953   1.970       .  S
C950        O951   1.253       .  A
C950       C1346   1.465       .  S
O955       Ni961   1.902       .  S
O955        C976   1.255       .  A
O956       Ni979   1.911       .  S
O956        C965   1.256       .  A
O957       Ni961   1.917       .  S
O957       Ni979   1.881       .  S
O957       Ni973   1.954       .  S
O957        H980   0.965       .  S
C958        O975   1.281       .  A
C958        O967   1.280       .  A
C958       C1317   1.469       .  S
O959       Ni978   1.892       .  S
O959        C965   1.259       .  A
O960       Ni978   1.880       .  S
O960        C962   1.257       .  A
Ni961       O964   1.950       .  S
Ni961       O966   1.871       .  S
C962        O972   1.272       .  A
C962       C1554   1.471       .  S
O963       Ni979   1.903       .  S
O963        C969   1.273       .  A
O964        C969   1.283       .  A
C965       C1349   1.473       .  S
O966        C968   1.257       .  A
O967       Ni978   1.920       .  S
C968        O974   1.273       .  A
C968       C1410   1.470       .  S
C969       C1301   1.482       .  S
H970        O971   0.966       .  S
O971       Ni979   1.954       .  S
O971       Ni973   1.879       .  S
O971       Ni978   1.902       .  S
O972       Ni973   1.929       .  S
Ni973       O977   1.928       .  S
Ni973       O975   1.918       .  S
O974       Ni979   1.953       .  S
C976        O977   1.257       .  A
C976       C1365   1.482       .  S
O981       Ni987   1.890       .  S
O981       C1002   1.256       .  A
O982      Ni1005   1.926   1_556  S
O982        C991   1.258       .  A
O983       Ni987   1.909       .  S
O983       Ni999   1.959       .  S
O983       H1006   0.965       .  S
C984       O1001   1.273       .  A
C984       C1237   1.470       .  S
O985      Ni1004   1.899       .  S
O985        C991   1.254       .  A
O986      Ni1004   1.880   1_554  S
O986        C988   1.251       .  A
Ni987       O990   1.926       .  S
Ni987       O992   1.888       .  S
C988       C1285   1.474       .  S
O989      Ni1005   1.926       .  S
O989        C995   1.283       .  A
C991       C1250   1.478       .  S
O992        C994   1.262       .  A
O993      Ni1004   1.958       .  S
C994       C1637   1.481       .  S
C995       C1381   1.480       .  S
H996        O997   0.967   1_556  S
O997      Ni1005   1.947       .  S
O997      Ni1004   1.900   1_554  S
O998       Ni999   1.970       .  S
Ni999      O1003   1.922       .  S
Ni999      O1001   1.899       .  S
O1000     Ni1005   1.939       .  S
C1002      O1003   1.258       .  A
C1002      C1269   1.468       .  S
O1007     Ni1013   1.897       .  S
O1007      C1028   1.264       .  A
O1008     Ni1031   1.920       .  S
O1008      C1017   1.250       .  A
O1009     Ni1013   1.905       .  S
O1009     Ni1031   1.876       .  S
O1009     Ni1025   1.956       .  S
O1009      H1032   0.966       .  S
C1010      O1027   1.278       .  A
C1010      O1019   1.281       .  A
C1010      C1202   1.489       .  S
O1011     Ni1030   1.891       .  S
O1011      C1017   1.254       .  A
O1012     Ni1030   1.875       .  S
O1012      C1014   1.261       .  A
Ni1013     O1016   1.937       .  S
Ni1013     O1018   1.896       .  S
C1014      O1024   1.275       .  A
C1014      C1218   1.472       .  S
O1015     Ni1031   1.900       .  S
O1015      C1021   1.276       .  A
O1016      C1021   1.282       .  A
C1017      C1266   1.465       .  S
O1018      C1020   1.261       .  A
O1019     Ni1030   1.919       .  S
C1020      O1026   1.268       .  A
C1020      C1573   1.498       .  S
C1021      C1314   1.476       .  S
H1022      O1023   0.963       .  S
O1023     Ni1031   1.965       .  S
O1023     Ni1025   1.889       .  S
O1023     Ni1030   1.908       .  S
O1024     Ni1025   1.950       .  S
Ni1025     O1029   1.911       .  S
Ni1025     O1027   1.926       .  S
O1026     Ni1031   1.925       .  S
C1028      O1029   1.259       .  A
C1028      C1253   1.481       .  S
O1033     Ni1039   1.881       .  S
O1033      C1054   1.253       .  A
O1034     Ni1057   1.919       .  S
O1034      C1043   1.257       .  A
O1035     Ni1039   1.917       .  S
O1035     Ni1051   1.970       .  S
O1035      H1058   0.965       .  S
C1036      O1053   1.279       .  A
C1036      C1509   1.485       .  S
O1037     Ni1056   1.894       .  S
O1037      C1043   1.264       .  A
O1038     Ni1056   1.893       .  S
Ni1039     O1042   1.902       .  S
Ni1039     O1044   1.882       .  S
C1040      O1050   1.270       .  A
C1040      C1586   1.491       .  S
O1041     Ni1057   1.943       .  S
O1041      C1047   1.284       .  A
C1043      C1186   1.489       .  S
O1044      C1046   1.260   1_556  A
O1045     Ni1056   1.937       .  S
C1046      C1282   1.459       .  S
C1047      C1154   1.495       .  S
H1048      O1049   0.966       .  S
O1049     Ni1057   1.966       .  S
O1049     Ni1056   1.905       .  S
O1050     Ni1051   1.933       .  S
Ni1051     O1055   1.928       .  S
Ni1051     O1053   1.915   1_556  S
O1052     Ni1057   1.918       .  S
C1054      O1055   1.255       .  A
C1054      C1170   1.480       .  S
O1059     Ni1065   1.891       .  S
O1059      C1080   1.255       .  A
O1060     Ni1083   1.921       .  S
O1060      C1069   1.258       .  A
O1061     Ni1065   1.918       .  S
O1061     Ni1083   1.897       .  S
O1061     Ni1077   1.959       .  S
O1061      H1084   0.966       .  S
C1062      O1079   1.287       .  A
C1062      O1071   1.279       .  A
C1062      C1429   1.485       .  S
O1063     Ni1082   1.887       .  S
O1063      C1069   1.260       .  A
O1064     Ni1082   1.893       .  S
O1064      C1066   1.262       .  A
Ni1065     O1068   1.927       .  S
Ni1065     O1070   1.883       .  S
C1066      O1076   1.269       .  A
C1066      C1525   1.476       .  S
O1067     Ni1083   1.912       .  S
O1067      C1073   1.274       .  A
O1068      C1073   1.278       .  A
C1069      C1173   1.473       .  S
O1070      C1072   1.261       .  A
O1071     Ni1082   1.918       .  S
C1072      O1078   1.272       .  A
C1072      C1221   1.473       .  S
C1073      C1138   1.467       .  S
H1074      O1075   0.966       .  S
O1075     Ni1083   1.962       .  S
O1075     Ni1077   1.883       .  S
O1075     Ni1082   1.905       .  S
O1076     Ni1077   1.924       .  S
Ni1077     O1081   1.933       .  S
Ni1077     O1079   1.938       .  S
O1078     Ni1083   1.946       .  S
C1080      O1081   1.260       .  A
C1080      C1189   1.492       .  S
O1085     Ni1091   1.962       .  S
O1085      C1106   1.275       .  A
O1086     Ni1109   1.985       .  S
O1086      C1095   1.288   1_455  A
O1087     Ni1091   1.929       .  S
O1087     Ni1103   1.922   1_455  S
O1087      H1110   0.966       .  S
C1088      O1105   1.274       .  A
C1088      C1445   1.473       .  S
O1089     Ni1108   1.961       .  S
O1089      C1095   1.274       .  A
O1090     Ni1108   1.912   1_455  S
O1090      C1092   1.274       .  A
Ni1091     O1094   1.930       .  S
Ni1091     O1096   1.911   1_455  S
C1092      C1333   1.494       .  S
O1093     Ni1109   1.908       .  S
O1093      C1099   1.269       .  A
C1095      C1132   1.544       .  S
O1096      C1098   1.275       .  A
O1097     Ni1108   1.916       .  S
C1098      C1157   1.501       .  S
C1099      C1234   1.475       .  S
H1100      O1101   0.966       .  S
O1101     Ni1109   1.905   1_655  S
O1101     Ni1108   1.925       .  S
O1102     Ni1103   1.941   1_455  S
Ni1103     O1107   1.988       .  S
Ni1103     O1105   1.918       .  S
O1104     Ni1109   1.951   1_655  S
C1106      O1107   1.291   1_455  A
C1106      C1121   1.548       .  S
O1111     Ni1117   1.965       .  S
O1111      C1132   1.277   1_455  A
O1112     Ni1135   1.994       .  S
O1112      C1121   1.291       .  A
O1113     Ni1117   1.924       .  S
O1113     Ni1135   1.948       .  S
O1113     Ni1129   1.904   1_455  S
O1113      H1136   0.966       .  S
C1114      O1131   1.270       .  A
C1114      O1123   1.270       .  A
C1114      C1397   1.473       .  S
O1115     Ni1134   1.956       .  S
O1115      C1121   1.273   1_655  A
O1116     Ni1134   1.908   1_455  S
O1116      C1118   1.279       .  A
Ni1117     O1120   1.923       .  S
Ni1117     O1122   1.923   1_455  S
C1118      O1128   1.279       .  A
C1118      C1298   1.495       .  S
O1119     Ni1135   1.930       .  S
O1119      C1125   1.278       .  A
O1120      C1125   1.271       .  A
O1122      C1124   1.279       .  A
O1123     Ni1134   1.923       .  S
C1124      O1130   1.274       .  A
C1124      C1141   1.492       .  S
C1125      C1205   1.488       .  S
H1126      O1127   0.966       .  S
O1127     Ni1135   1.930   1_655  S
O1127     Ni1129   1.961       .  S
O1127     Ni1134   1.924       .  S
O1128     Ni1129   1.945   1_455  S
Ni1129     O1133   1.981       .  S
Ni1129     O1131   1.915       .  S
O1130     Ni1135   1.927   1_655  S
C1132      O1133   1.288       .  A
C1137      C1138   1.395       .  A
C1137      C1142   1.399       .  A
C1137      H1144   1.085       .  S
C1138      C1139   1.406       .  A
C1139      C1140   1.407       .  A
C1139      C1146   1.504       .  S
C1140      C1141   1.410       .  A
C1140      H1145   1.084       .  S
C1141      C1142   1.428       .  A
C1142      C1143   1.512       .  S
C1143      H1147   1.111       .  S
C1143      H1148   1.111       .  S
C1143      H1149   1.110       .  S
C1146      H1150   1.104       .  S
C1146      H1151   1.110       .  S
C1146      H1152   1.111       .  S
C1153      C1158   1.404       .  A
C1155      C1156   1.409       .  A
C1155      C1162   1.509   1_556  S
C1156      C1157   1.411       .  A
C1156      H1161   1.083   1_556  S
C1157      C1158   1.423       .  A
C1158      C1159   1.511       .  S
C1159      H1163   1.111       .  S
C1159      H1164   1.110       .  S
C1162      H1166   1.110       .  S
C1162      H1168   1.111       .  S
C1169      C1170   1.404       .  A
C1169      C1174   1.394       .  A
C1169      H1176   1.073       .  S
C1170      C1171   1.416       .  A
C1171      C1172   1.396       .  A
C1171      C1178   1.507       .  S
C1172      C1173   1.404       .  A
C1172      H1177   1.083       .  S
C1173      C1174   1.411       .  A
C1174      C1175   1.508       .  S
C1175      H1179   1.111       .  S
C1175      H1180   1.109       .  S
C1175      H1181   1.111       .  S
C1178      H1182   1.110       .  S
C1178      H1183   1.109       .  S
C1178      H1184   1.102       .  S
C1185      C1186   1.408       .  A
C1185      C1190   1.397       .  A
C1185      H1192   1.085       .  S
C1186      C1187   1.419       .  A
C1187      C1188   1.399       .  A
C1187      C1194   1.511       .  S
C1188      C1189   1.410       .  A
C1188      H1193   1.085       .  S
C1189      C1190   1.412       .  A
C1190      C1191   1.502       .  S
C1191      H1195   1.106       .  S
C1191      H1196   1.107       .  S
C1191      H1197   1.105       .  S
C1194      H1198   1.104       .  S
C1194      H1199   1.104       .  S
C1194      H1200   1.109       .  S
C1201      C1202   1.401       .  A
C1201      C1206   1.399       .  A
C1201      H1208   1.085       .  S
C1202      C1203   1.421       .  A
C1203      C1204   1.411       .  A
C1203      C1210   1.508       .  S
C1204      C1205   1.404       .  A
C1204      H1209   1.084       .  S
C1205      C1206   1.422       .  A
C1206      C1207   1.512       .  S
C1207      H1211   1.111       .  S
C1207      H1212   1.109       .  S
C1207      H1213   1.110       .  S
C1210      H1214   1.106       .  S
C1210      H1215   1.110       .  S
C1210      H1216   1.111       .  S
C1217      C1218   1.403       .  A
C1217      C1222   1.402   1_455  A
C1217      H1224   1.085       .  S
C1218      C1219   1.414       .  A
C1219      C1220   1.406   1_455  A
C1219      C1226   1.503       .  S
C1220      C1221   1.401       .  A
C1220      H1225   1.084       .  S
C1221      C1222   1.415       .  A
C1222      C1223   1.511       .  S
C1223      H1227   1.111       .  S
C1223      H1228   1.109       .  S
C1223      H1229   1.109       .  S
C1226      H1230   1.110       .  S
C1226      H1231   1.110       .  S
C1226      H1232   1.111       .  S
C1233      C1234   1.408       .  A
C1233      C1238   1.403       .  A
C1233      H1240   1.084       .  S
C1234      C1235   1.418       .  A
C1235      C1236   1.401       .  A
C1235      C1242   1.509       .  S
C1236      C1237   1.400       .  A
C1236      H1241   1.083       .  S
C1237      C1238   1.405       .  A
C1238      C1239   1.505       .  S
C1239      H1243   1.111       .  S
C1239      H1244   1.110       .  S
C1242      H1246   1.102       .  S
C1242      H1248   1.110       .  S
C1249      C1250   1.409       .  A
C1249      C1254   1.392       .  A
C1249      H1256   1.085       .  S
C1250      C1251   1.408       .  A
C1251      C1252   1.399       .  A
C1251      C1258   1.512       .  S
C1252      C1253   1.413       .  A
C1252      H1257   1.085       .  S
C1253      C1254   1.415       .  A
C1254      C1255   1.513       .  S
C1255      H1259   1.109       .  S
C1255      H1260   1.106       .  S
C1255      H1261   1.108       .  S
C1258      H1262   1.103       .  S
C1258      H1263   1.109       .  S
C1258      H1264   1.111       .  S
C1265      C1266   1.401       .  A
C1265      C1270   1.396       .  A
C1265      H1272   1.077       .  S
C1266      C1267   1.401       .  A
C1267      C1268   1.391       .  A
C1267      C1274   1.496       .  S
C1268      C1269   1.403       .  A
C1268      H1273   1.082       .  S
C1269      C1270   1.415       .  A
C1270      C1271   1.507       .  S
C1271      H1275   1.111       .  S
C1271      H1276   1.110       .  S
C1271      H1277   1.110       .  S
C1274      H1278   1.110       .  S
C1274      H1279   1.110       .  S
C1274      H1280   1.106       .  S
C1281      C1286   1.399   1_655  A
C1281      H1288   1.085       .  S
C1282      C1283   1.408       .  A
C1283      C1284   1.400   1_655  A
C1283      C1290   1.509       .  S
C1284      C1285   1.404       .  A
C1284      H1289   1.077       .  S
C1286      C1287   1.498       .  S
C1287      H1291   1.111   1_455  S
C1287      H1292   1.109       .  S
C1287      H1293   1.102       .  S
C1290      H1294   1.110   1_554  S
C1290      H1295   1.108       .  S
C1290      H1296   1.110   1_655  S
C1297      C1298   1.404       .  A
C1297      C1302   1.395       .  A
C1297      H1304   1.084       .  S
C1298      C1299   1.424       .  A
C1299      C1300   1.411       .  A
C1299      C1306   1.509       .  S
C1300      C1301   1.403       .  A
C1300      H1305   1.084       .  S
C1301      C1302   1.416       .  A
C1302      C1303   1.506       .  S
C1303      H1307   1.111       .  S
C1303      H1308   1.109       .  S
C1303      H1309   1.106       .  S
C1306      H1310   1.110       .  S
C1306      H1311   1.104       .  S
C1306      H1312   1.111       .  S
C1313      C1314   1.406       .  A
C1313      C1318   1.399   1_565  A
C1313      H1320   1.084       .  S
C1314      C1315   1.414       .  A
C1315      C1316   1.404   1_565  A
C1315      C1322   1.508       .  S
C1316      C1317   1.404       .  A
C1316      H1321   1.085       .  S
C1317      C1318   1.409       .  A
C1318      C1319   1.509       .  S
C1319      H1323   1.111       .  S
C1319      H1324   1.109       .  S
C1319      H1325   1.110       .  S
C1322      H1326   1.111       .  S
C1322      H1327   1.108       .  S
C1322      H1328   1.111       .  S
C1329      C1330   1.409       .  A
C1329      C1334   1.405       .  A
C1329      H1336   1.084       .  S
C1331      C1332   1.404       .  A
C1331      C1338   1.498       .  S
C1332      H1337   1.082       .  S
C1333      C1334   1.418       .  A
C1334      C1335   1.509       .  S
C1335      H1339   1.111       .  S
C1335      H1340   1.109       .  S
C1335      H1341   1.110       .  S
C1338      H1342   1.107       .  S
C1338      H1343   1.108       .  S
C1338      H1344   1.111       .  S
C1345      C1346   1.399       .  A
C1345      C1350   1.384       .  A
C1345      H1352   1.086       .  S
C1346      C1347   1.412       .  A
C1347      C1348   1.397       .  A
C1347      C1354   1.512       .  S
C1348      C1349   1.410       .  A
C1348      H1353   1.085       .  S
C1349      C1350   1.411       .  A
C1350      C1351   1.499       .  S
C1351      H1355   1.100       .  S
C1351      H1356   1.103       .  S
C1351      H1357   1.105       .  S
C1354      H1358   1.110       .  S
C1354      H1359   1.103       .  S
C1354      H1360   1.110       .  S
C1361      C1362   1.403       .  A
C1361      C1366   1.396       .  A
C1361      H1368   1.086       .  S
C1362      C1363   1.404       .  A
C1363      C1364   1.389       .  A
C1363      C1370   1.507       .  S
C1364      C1365   1.411       .  A
C1364      H1369   1.085       .  S
C1365      C1366   1.418       .  A
C1366      C1367   1.504       .  S
C1367      H1371   1.110       .  S
C1367      H1372   1.104       .  S
C1367      H1373   1.105       .  S
C1370      H1374   1.108       .  S
C1370      H1375   1.110       .  S
C1370      H1376   1.109       .  S
C1377      C1378   1.401       .  A
C1377      C1382   1.390   1_545  A
C1377      H1384   1.087       .  S
C1378      C1379   1.409       .  A
C1379      C1380   1.415   1_545  A
C1379      C1386   1.503       .  S
C1380      C1381   1.412       .  A
C1380      H1385   1.084       .  S
C1381      C1382   1.416       .  A
C1382      C1383   1.510       .  S
C1383      H1387   1.110   1_554  S
C1383      H1388   1.101       .  S
C1386      H1390   1.110       .  S
C1386      H1392   1.111       .  S
C1393      C1394   1.410       .  A
C1393      C1398   1.402       .  A
C1393      H1400   1.083       .  S
C1394      C1395   1.422       .  A
C1395      C1396   1.405       .  A
C1395      C1402   1.507       .  S
C1396      C1397   1.400       .  A
C1396      H1401   1.085       .  S
C1397      C1398   1.407       .  A
C1398      C1399   1.503       .  S
C1399      H1403   1.111       .  S
C1399      H1404   1.108       .  S
C1399      H1405   1.110       .  S
C1402      H1406   1.108       .  S
C1402      H1407   1.110       .  S
C1402      H1408   1.111       .  S
C1409      C1410   1.403       .  A
C1409      C1414   1.407   1_455  A
C1409      H1416   1.085       .  S
C1410      C1411   1.412       .  A
C1411      C1412   1.403   1_455  A
C1411      C1418   1.508       .  S
C1412      C1413   1.403       .  A
C1412      H1417   1.085       .  S
C1413      C1414   1.414       .  A
C1414      C1415   1.507       .  S
C1415      H1419   1.111       .  S
C1415      H1420   1.108       .  S
C1415      H1421   1.109       .  S
C1418      H1422   1.110       .  S
C1418      H1423   1.110       .  S
C1418      H1424   1.111       .  S
C1425      C1426   1.404       .  A
C1425      C1430   1.409   1_545  A
C1425      H1432   1.084       .  S
C1426      C1427   1.418       .  A
C1427      C1428   1.401   1_545  A
C1427      C1434   1.510       .  S
C1428      C1429   1.401       .  A
C1428      H1433   1.084       .  S
C1429      C1430   1.419       .  A
C1430      C1431   1.507       .  S
C1431      H1435   1.111       .  S
C1431      H1436   1.109       .  S
C1431      H1437   1.111       .  S
C1434      H1438   1.110       .  S
C1434      H1439   1.108       .  S
C1434      H1440   1.111       .  S
C1441      C1442   1.412       .  A
C1441      C1446   1.404       .  A
C1441      H1448   1.083       .  S
C1443      C1444   1.403       .  A
C1443      C1450   1.508       .  S
C1444      H1449   1.085       .  S
C1445      C1446   1.407       .  A
C1446      C1447   1.506       .  S
C1447      H1451   1.111       .  S
C1447      H1452   1.108       .  S
C1447      H1453   1.110       .  S
C1450      H1454   1.109       .  S
C1450      H1456   1.111       .  S
C1457      C1458   1.410       .  A
C1457      C1462   1.392       .  A
C1457      H1464   1.083       .  S
C1458      C1459   1.420       .  A
C1459      C1460   1.395       .  A
C1459      C1466   1.506       .  S
C1460      C1461   1.400       .  A
C1460      H1465   1.086       .  S
C1461      C1462   1.405       .  A
C1462      C1463   1.505       .  S
C1463      H1467   1.107       .  S
C1463      H1468   1.110       .  S
C1463      H1469   1.108       .  S
C1466      H1470   1.103       .  S
C1466      H1471   1.106       .  S
C1466      H1472   1.110       .  S
C1473      C1474   1.410       .  A
C1473      C1478   1.395       .  A
C1473      H1480   1.084       .  S
C1474      C1475   1.414       .  A
C1475      C1476   1.392       .  A
C1475      C1482   1.507       .  S
C1476      C1477   1.404       .  A
C1476      H1481   1.085       .  S
C1477      C1478   1.412       .  A
C1478      C1479   1.509       .  S
C1479      H1483   1.107       .  S
C1479      H1484   1.108       .  S
C1479      H1485   1.108       .  S
C1482      H1486   1.094       .  S
C1482      H1487   1.110       .  S
C1482      H1488   1.111       .  S
C1489      C1494   1.407   1_655  A
C1489      H1496   1.085       .  S
C1490      C1491   1.410       .  A
C1491      C1492   1.405   1_655  A
C1491      C1498   1.508       .  S
C1492      C1493   1.407       .  A
C1492      H1497   1.084       .  S
C1494      C1495   1.503       .  S
C1495      H1499   1.111       .  S
C1495      H1500   1.104       .  S
C1495      H1501   1.108       .  S
C1498      H1502   1.110       .  S
C1498      H1503   1.111       .  S
C1498      H1504   1.111       .  S
C1505      C1510   1.409   1_545  A
C1505      H1512   1.084       .  S
C1506      C1507   1.414       .  A
C1507      C1508   1.402   1_545  A
C1507      C1514   1.510       .  S
C1508      C1509   1.404       .  A
C1508      H1513   1.084       .  S
C1510      C1511   1.508       .  S
C1511      H1515   1.111       .  S
C1511      H1516   1.109       .  S
C1511      H1517   1.111       .  S
C1514      H1518   1.110       .  S
C1514      H1519   1.109       .  S
C1514      H1520   1.111       .  S
C1521      C1522   1.398       .  A
C1521      C1526   1.401       .  A
C1521      H1528   1.084       .  S
C1522      C1523   1.411       .  A
C1523      C1524   1.406       .  A
C1523      C1530   1.506       .  S
C1524      C1525   1.404       .  A
C1524      H1529   1.084       .  S
C1525      C1526   1.417       .  A
C1526      C1527   1.507       .  S
C1527      H1531   1.110       .  S
C1527      H1532   1.098       .  S
C1527      H1533   1.109       .  S
C1530      H1534   1.110       .  S
C1530      H1535   1.110       .  S
C1530      H1536   1.111       .  S
C1537      C1538   1.397       .  A
C1537      C1542   1.400       .  A
C1537      H1544   1.083       .  S
C1538      C1539   1.409       .  A
C1539      C1540   1.411       .  A
C1539      C1546   1.505       .  S
C1540      C1541   1.409       .  A
C1540      H1545   1.084       .  S
C1541      C1542   1.416       .  A
C1542      C1543   1.505       .  S
C1543      H1547   1.105       .  S
C1543      H1548   1.100       .  S
C1543      H1549   1.103       .  S
C1546      H1550   1.110       .  S
C1546      H1551   1.110       .  S
C1546      H1552   1.111       .  S
C1553      C1554   1.408       .  A
C1553      C1558   1.409       .  A
C1553      H1560   1.084       .  S
C1554      C1555   1.414       .  A
C1555      C1556   1.389       .  A
C1555      C1562   1.506       .  S
C1556      C1557   1.399       .  A
C1556      H1561   1.084       .  S
C1557      C1558   1.411       .  A
C1558      C1559   1.505       .  S
C1559      H1563   1.111       .  S
C1559      H1564   1.110       .  S
C1559      H1565   1.110       .  S
C1562      H1566   1.098       .  S
C1562      H1567   1.102       .  S
C1562      H1568   1.111       .  S
C1569      C1570   1.403       .  A
C1569      C1574   1.406       .  A
C1569      H1576   1.084       .  S
C1570      C1571   1.413       .  A
C1571      C1572   1.404       .  A
C1571      C1578   1.509       .  S
C1572      C1573   1.410       .  A
C1572      H1577   1.082       .  S
C1573      C1574   1.423       .  A
C1574      C1575   1.509       .  S
C1575      H1579   1.111       .  S
C1575      H1580   1.110       .  S
C1575      H1581   1.109       .  S
C1578      H1582   1.110       .  S
C1578      H1583   1.110       .  S
C1578      H1584   1.111       .  S
C1585      C1590   1.404       .  A
C1585      H1592   1.084       .  S
C1586      C1587   1.425       .  A
C1587      C1588   1.402       .  A
C1587      C1594   1.509       .  S
C1588      C1589   1.395       .  A
C1588      H1593   1.080       .  S
C1590      C1591   1.506       .  S
C1591      H1595   1.111       .  S
C1591      H1596   1.110       .  S
C1591      H1597   1.110       .  S
C1594      H1598   1.101       .  S
C1594      H1599   1.110       .  S
C1594      H1600   1.111       .  S
C1601      C1606   1.406       .  A
C1601      H1608   1.084       .  S
C1602      C1603   1.411       .  A
C1603      C1604   1.397       .  A
C1603      C1610   1.501       .  S
C1604      H1609   1.084       .  S
C1605      C1606   1.417       .  A
C1606      C1607   1.508       .  S
C1607      H1611   1.111       .  S
C1607      H1612   1.110       .  S
C1610      H1615   1.109   1_545  S
C1610      H1616   1.111       .  S
C1617      C1618   1.397       .  A
C1617      C1622   1.404       .  A
C1617      H1624   1.084       .  S
C1618      C1619   1.421       .  A
C1619      C1620   1.410       .  A
C1619      C1626   1.507       .  S
C1620      C1621   1.402       .  A
C1620      H1625   1.083       .  S
C1621      C1622   1.430       .  A
C1622      C1623   1.512       .  S
C1623      H1627   1.111       .  S
C1623      H1629   1.110       .  S
C1626      H1631   1.110       .  S
C1626      H1632   1.111       .  S
C1633      C1634   1.412       .  A
C1633      C1638   1.417       .  A
C1633      H1640   1.083       .  S
C1635      C1636   1.391       .  A
C1635      C1642   1.515       .  S
C1636      C1637   1.398       .  A
C1636      H1641   1.085       .  S
C1638      C1639   1.505       .  S
C1639      H1643   1.111       .  S
C1639      H1644   1.105       .  S
C1642      H1647   1.108       .  S
C1642      H1648   1.111       .  S
