geometry optimzed in LAMMPS
_audit_creation_date              2020-11-30 
_audit_creation_method            'lammps2cif' 
_symmetry_space_group_name_H-M    'P1' 
_symmetry_Int_Tables_number       1 
_symmetry_cell_setting            triclinic 
loop_ 
_symmetry_equiv_pos_as_xyz 
  x,y,z 
_cell_length_a                    24.97330464033167 
_cell_length_b                    27.82062348769194 
_cell_length_c                    45.13171957641368 
_cell_angle_alpha                 88.43607016664312 
_cell_angle_beta                  89.65692937410333 
_cell_angle_gamma                 89.89597141139684 
loop_ 
_atom_site_label 
_atom_site_type_symbol 
_atom_site_fract_x 
_atom_site_fract_y 
_atom_site_fract_z 
_atom_site_charge 
C1          C  0.84891635  0.40845263  0.34425559     0.44130
N2          N  0.80400252  0.37501459  0.31022251     0.03020
C3          C  0.79068960  0.41432671  0.15860179    -0.04860
H4          H  0.67585861  0.52401580  0.21756366     0.08510
C5          C  0.56524347  0.39557571  0.25611323    -0.05210
Co6        Co  0.82749857  0.40900566  0.24849280     0.74180
N7          N  0.73491779  0.47014939  0.22898661    -0.24390
Co8        Co  0.70730110  0.40993746  0.20797753     0.74070
C9          C  0.55682698  0.44375546  0.24309264     0.44230
N10         N  0.65777637  0.32670092  0.29778261     0.02630
N11         N  0.63314475  0.41689010  0.22892053     0.02740
N12         N  0.86746921  0.41914652  0.18434917    -0.45240
H13         H  0.89071818  0.45858671  0.30947421     0.08500
N14         N  0.77934713  0.47070574  0.24493699     0.03020
N15         N  0.68083246  0.34639101  0.18890689     0.02760
C16         C  0.66052181  0.29053293  0.15932079     0.44370
N17         N  0.70346785  0.32410116  0.31227680    -0.23840
C18         C  0.91850846  0.33210557  0.24092580    -0.04760
N19         N  0.81388063  0.37391815  0.33872860    -0.44950
N20         N  0.68114639  0.33533676  0.16046424    -0.45170
C21         C  0.92767351  0.28320270  0.25242443     0.44140
N22         N  0.82666012  0.40749030  0.20204013     0.03010
N23         N  0.74812818  0.25530171  0.27159273    -0.23870
N24         N  0.82939425  0.40936094  0.29538112    -0.24360
N25         N  0.70231780  0.25493034  0.25728663     0.02650
H26         H  0.80729492  0.20122921  0.28235175     0.08540
H27         H  0.62965309  0.24113997  0.19726755     0.08580
N28         N  0.78108751  0.40580518  0.18739799    -0.24410
N29         N  0.61373029  0.38197132  0.24606820    -0.24020
N30         N  0.85114275  0.30818253  0.26811698     0.03020
C31         C  0.74721605  0.54132499  0.24689315     0.44410
C32         C  0.69438130  0.33489649  0.34060571    -0.05270
N33         N  0.66096301  0.31159657  0.20615006    -0.24020
H34         H  0.53897072  0.37418709  0.27028784     0.08560
N35         N  0.78859670  0.51349824  0.25602621    -0.45240
H36         H  0.72432775  0.33846420  0.35752086     0.08550
C37         C  0.73262323  0.18366643  0.25564523     0.44250
C38         C  0.86024135  0.43230911  0.31512406    -0.04770
Co39       Co  0.77677314  0.31504972  0.29069728     0.73820
N40         N  0.61745290  0.34100581  0.31472478    -0.44960
C41         C  0.84778472  0.42308886  0.15655469     0.44510
N42         N  0.88461692  0.27095353  0.26933800    -0.44950
Co43       Co  0.65734958  0.31807314  0.25200224     0.73890
C44         C  0.64681615  0.27478271  0.18935809    -0.05280
C45         C  0.71217242  0.51346131  0.22896260    -0.04840
N46         N  0.87027022  0.34446461  0.25175842    -0.24370
N47         N  0.60039414  0.45438683  0.22643474    -0.45130
H48         H  0.76030637  0.42123147  0.14203519     0.08520
C49         C  0.77007596  0.21170188  0.27187440    -0.05250
Cl50       Cl  0.74251092  0.36311012  0.24959670    -0.48250
C51         C  0.63770044  0.34598612  0.34215479     0.44280
H52         H  0.94441949  0.35498139  0.22746876     0.08490
N53         N  0.69126256  0.21191147  0.24703953    -0.44960
C54         C  0.56703582  0.94969804  0.24089545     0.44130
N55         N  0.63902545  0.91811292  0.22431758     0.03020
C56         C  0.76756022  0.71222108  0.27266505    -0.04860
H57         H  0.72265285  0.84221797  0.35473888     0.08510
C58         C  0.86455787  0.93075092  0.31225301    -0.05210
Co59       Co  0.65942014  0.81986430  0.24896092     0.74180
N60         N  0.70298377  0.82755252  0.30939525    -0.24390
Co61       Co  0.77632090  0.81701538  0.28849136     0.74070
C62         C  0.85208098  0.90751277  0.34144299     0.44230
N63         N  0.78385291  0.97159049  0.24122193     0.02630
N64         N  0.80424321  0.87692749  0.30753072     0.02740
N65         N  0.68893571  0.71218255  0.24770251    -0.45240
H66         H  0.54621254  0.88162056  0.26872886     0.08500
N67         N  0.65780497  0.83005810  0.29446574     0.03020
N68         N  0.85003940  0.80870338  0.26625422     0.02760
C69         C  0.92477866  0.78080997  0.25093032     0.44370
N70         N  0.74036125  0.97110950  0.22445872    -0.23840
C71         C  0.65852751  0.77117127  0.18827012    -0.04760
N72         N  0.60957895  0.95779257  0.22305881    -0.44950
N73         N  0.88153538  0.77035043  0.26787489    -0.45170
C74         C  0.67940346  0.78242153  0.15893380     0.44140
N75         N  0.70185466  0.75595916  0.25601309     0.03010
N76         N  0.78661382  0.90683786  0.18385337    -0.23870
N77         N  0.61838387  0.88437346  0.24185902    -0.24360
N78         N  0.83168465  0.91058141  0.19884879     0.02650
H79         H  0.76098185  0.93546862  0.14178947     0.08540
H80         H  0.94511825  0.85104190  0.22508948     0.08580
N81         N  0.74741547  0.75645988  0.27045196    -0.24410
N82         N  0.83175774  0.90978007  0.29258322    -0.24020
N83         N  0.68845340  0.84430878  0.18585057     0.03020
C84         C  0.63648422  0.84963514  0.33848105     0.44410
C85         C  0.71952740  0.01517610  0.22273131    -0.05270
N86         N  0.87065818  0.84390555  0.24947458    -0.24020
H87         H  0.89702040  0.95494846  0.30647336     0.08560
N88         N  0.61694021  0.84445888  0.31093295    -0.45240
H89         H  0.68451760  0.02613968  0.21022723     0.08550
C90         C  0.84722382  0.94413552  0.15599493     0.44250
C91         C  0.57217893  0.90089362  0.25326004    -0.04770
Co92       Co  0.71306493  0.90976534  0.20400730     0.73820
N93         N  0.79425020  0.01482079  0.25129101    -0.44960
C94         C  0.72905390  0.68355937  0.25759182     0.44510
N95         N  0.69657950  0.82864939  0.15857624    -0.44950
Co96       Co  0.83061219  0.90957665  0.24559392     0.73890
C97         C  0.91817424  0.82956662  0.23880159    -0.05280
C98         C  0.69317611  0.83866171  0.33755131    -0.04840
N99         N  0.66663820  0.81104737  0.20353896    -0.24370
N100        N  0.81444286  0.87524498  0.33600890    -0.45130
H101        H  0.80379018  0.70159758  0.28415097     0.08520
C102        C  0.79344347  0.92528133  0.15644621    -0.05250
Cl103      Cl  0.74529200  0.86421471  0.24654277    -0.48250
C104        C  0.75483543  0.04328154  0.24042156     0.44280
H105        H  0.64302615  0.73744055  0.19710688     0.08490
N106        N  0.86862964  0.93410164  0.18292729    -0.44960
C107        C  0.07008332  0.20852844  0.24787027     0.44130
N108        N  0.12882072  0.15166439  0.24946081     0.03020
C109        C  0.38255689  0.14951833  0.30915890    -0.04860
H110        H  0.34858827  0.27938054  0.21407017     0.08510
C111        C  0.30846168  0.14235085  0.15626211    -0.05210
Co112      Co  0.22678913  0.18108965  0.28344585     0.74180
N113        N  0.30429383  0.23060034  0.24337767    -0.24390
Co114      Co  0.34401719  0.16443202  0.24412143     0.74070
C115        C  0.33176482  0.19071459  0.15415232     0.44230
N116        N  0.21159426  0.07459077  0.18972341     0.02630
N117        N  0.33826688  0.16392853  0.19869135     0.02740
N118        N  0.30490666  0.16144884  0.33363253    -0.45240
H119        H  0.12541797  0.25977817  0.27231738     0.08500
N120        N  0.25859789  0.23535132  0.25768503     0.03020
N121        N  0.38219103  0.09724832  0.24356580     0.02760
C122        C  0.43806307  0.03864450  0.24582483     0.44370
N123        N  0.16616057  0.07712764  0.20472874    -0.23840
C124        C  0.18468457  0.13133720  0.33748029    -0.04760
N125        N  0.07890637  0.16192914  0.24124810    -0.44950
N126        N  0.43114541  0.08536106  0.25269250    -0.45170
C127        C  0.14343651  0.09678463  0.34402608     0.44140
N128        N  0.29978023  0.17124682  0.30494497     0.03010
N129        N  0.20918796  0.01779562  0.25296091    -0.23870
N130        N  0.15250994  0.18840365  0.26200374    -0.24360
N131        N  0.25346373  0.01269774  0.23694092     0.02650
H132        H  0.16349012  0.96740124  0.28035556     0.08540
H133        H  0.38203687  0.98914653  0.22074106     0.08580
N134        N  0.34443304  0.16368626  0.29003639    -0.24410
N135        N  0.31368412  0.12888188  0.18507188    -0.24020
N136        N  0.16708601  0.09138937  0.29809633     0.03020
C137        C  0.26815347  0.30217912  0.23453601     0.44410
C138        C  0.12616466  0.06650631  0.18604092    -0.05270
N139        N  0.35815078  0.06156542  0.23045981    -0.24020
H140        H  0.28841999  0.12220120  0.13945900     0.08560
N141        N  0.23593895  0.27769882  0.25327517    -0.45240
H142        H  0.08466003  0.06120972  0.19232471     0.08550
C143        C  0.24137739  0.94292776  0.25736997     0.44250
C144        C  0.11852316  0.22587784  0.26186775    -0.04770
Co145      Co  0.16656825  0.08371983  0.25132861     0.73820
N146        N  0.20517130  0.06236898  0.16194505    -0.44960
C147        C  0.35612046  0.14821447  0.33803103     0.44510
N148        N  0.13292696  0.07371521  0.31842935    -0.44950
Co149      Co  0.28448728  0.06907096  0.21014445     0.73890
C150        C  0.39029623  0.02308698  0.23087665    -0.05280
C151        C  0.31443259  0.27202572  0.22830628    -0.04840
N152        N  0.19490450  0.12701249  0.30884205    -0.24370
N153        N  0.34991162  0.20109438  0.18105677    -0.45130
H154        H  0.42215981  0.13704889  0.30327251     0.08520
C155        C  0.19819823  0.97518968  0.26659757    -0.05250
Cl156      Cl  0.25527365  0.12436115  0.24727293    -0.48250
C157        C  0.15258645  0.05735417  0.15751565     0.44280
H158        H  0.19623327  0.16184059  0.35033764     0.08490
N159        N  0.27341692  0.96857260  0.23880786    -0.44960
C160        C  0.42299758  0.52870003  0.25259266     0.44130
N161        N  0.36752605  0.58767332  0.25543989     0.03020
C162        C  0.10911254  0.58975768  0.30984219    -0.04860
H163        H  0.15490627  0.46292569  0.21660867     0.08510
C164        C  0.20016953  0.59898011  0.15824076    -0.05210
Co165      Co  0.26704324  0.55786827  0.28854730     0.74180
N166        N  0.19403379  0.50924036  0.24770483    -0.24390
Co167      Co  0.15454358  0.57538082  0.24581519     0.74070
C168        C  0.17736867  0.55049691  0.15672294     0.44230
N169        N  0.29272980  0.66717388  0.19210441     0.02630
N170        N  0.16505501  0.57686093  0.20030746     0.02740
N171        N  0.18395810  0.57655369  0.33646256    -0.45240
H172        H  0.36609222  0.47708362  0.27766138     0.08500
N173        N  0.23775024  0.50368629  0.26357708     0.03020
N174        N  0.11692593  0.64212609  0.24275057     0.02760
C175        C  0.06042609  0.69988506  0.24381287     0.44370
N176        N  0.33614309  0.66319373  0.20854619    -0.23840
C177        C  0.30074124  0.61062983  0.34213949    -0.04760
N178        N  0.41616233  0.57604856  0.24571862    -0.44950
N179        N  0.06778417  0.65319138  0.25163760    -0.45170
C180        C  0.33808343  0.64808618  0.34866208     0.44140
N181        N  0.19200715  0.56748618  0.30814208     0.03010
N182        N  0.28816356  0.72197173  0.25396357    -0.23870
N183        N  0.34271103  0.55080696  0.26857650    -0.24360
N184        N  0.24554229  0.72778619  0.23682915     0.02650
H185        H  0.33042164  0.77062508  0.28222057     0.08540
H186        H  0.11721110  0.75152400  0.21857664     0.08580
N187        N  0.14901926  0.57559637  0.29192916    -0.24410
N188        N  0.19108665  0.61223075  0.18642381    -0.24020
N189        N  0.32395705  0.64842666  0.30155735     0.03020
C190        C  0.23220129  0.43898602  0.23999050     0.44410
C191        C  0.37886795  0.67300053  0.19107743    -0.05270
N192        N  0.14135138  0.67850108  0.22917055    -0.24020
H193        H  0.22254255  0.61930159  0.14158659     0.08560
N194        N  0.26181468  0.46207395  0.25969607    -0.45240
H195        H  0.41961843  0.67694547  0.19864531     0.08550
C196        C  0.25524079  0.79635947  0.25684495     0.44250
C197        C  0.37480231  0.51209971  0.26787367    -0.04770
Co198      Co  0.33033894  0.65597046  0.25494938     0.73820
N199        N  0.30322239  0.68003747  0.16429373    -0.44960
C200        C  0.13248541  0.59012278  0.33940398     0.44510
N201        N  0.35222486  0.66973686  0.32236045    -0.44950
Co202      Co  0.21729202  0.67192730  0.21059572     0.73890
C203        C  0.10866242  0.71675728  0.22879046    -0.05280
C204        C  0.18648804  0.46913427  0.23229566    -0.04840
N205        N  0.29617615  0.61220871  0.31289726    -0.24370
N206        N  0.15592821  0.53983316  0.18335634    -0.45130
H207        H  0.07011758  0.60237230  0.30276453     0.08520
C208        C  0.29756153  0.76373812  0.26744527    -0.05250
Cl209      Cl  0.24246817  0.61548437  0.24994479    -0.48250
C210        C  0.35660532  0.68357786  0.16163351     0.44280
H211        H  0.28735001  0.58116069  0.35643195     0.08490
N212        N  0.22513938  0.77174626  0.23777600    -0.44960
C213        C  0.62210973  0.21314598  0.08698330     0.44130
N214        N  0.56368547  0.19200108  0.05519323     0.03020
C215        C  0.56364261  0.21995235  0.90508867    -0.04860
H216        H  0.64213907  0.37396967  0.96929689     0.08510
C217        C  0.46435559  0.38624473  0.01393468    -0.05210
Co218      Co  0.60543588  0.19694271  0.99324348     0.74180
N219        N  0.62026582  0.29959782  0.97679458    -0.24390
Co220      Co  0.54644329  0.29430506  0.95704259     0.74070
C221        C  0.50795646  0.41810306  0.00435699     0.44230
N222        N  0.43024600  0.27192378  0.04573235     0.02630
N223        N  0.51747771  0.35044286  0.98332448     0.02740
N224        N  0.60539784  0.16000047  0.93062004    -0.45240
H225        H  0.68743783  0.22167483  0.05125020     0.08500
N226        N  0.64366723  0.26321972  0.99072576     0.03020
N227        N  0.47312932  0.29337800  0.93709050     0.02760
C228        C  0.41612026  0.33174780  0.91018023     0.44370
N229        N  0.45817730  0.23678017  0.05812300    -0.23840
C230        C  0.57364041  0.09031410  0.98086111    -0.04760
N231        N  0.57020585  0.20159267  0.08352538    -0.44950
N232        N  0.46713219  0.31721472  0.91161505    -0.45170
C233        C  0.52749304  0.06072727  0.98888784     0.44140
N234        N  0.59727045  0.19774449  0.94734412     0.03010
N235        N  0.41639756  0.17576249  0.01296170    -0.23870
N236        N  0.60801514  0.19806279  0.03949389    -0.24360
N237        N  0.39293397  0.21237989  0.99879173     0.02650
H238        H  0.39137463  0.10305326  0.02352444     0.08540
H239        H  0.35192956  0.32580872  0.94666431     0.08580
N240        N  0.57262072  0.23360146  0.93317223    -0.24410
N241        N  0.47372648  0.34502207  0.99990638    -0.24020
N242        N  0.52076505  0.12706437  0.01074038     0.03020
C243        C  0.69643945  0.32258822  0.99586057     0.44410
C244        C  0.44533930  0.23192071  0.08661456    -0.05270
N245        N  0.42864098  0.29149868  0.95309704    -0.24020
H246        H  0.43073460  0.39323768  0.02841914     0.08560
N247        N  0.69021621  0.27530544  0.00241823    -0.45240
H248        H  0.45573523  0.20097620  0.10043915     0.08550
C249        C  0.33692239  0.15404722  0.99666167     0.44250
C250        C  0.64736973  0.21107397  0.05781787    -0.04770
Co251      Co  0.49009329  0.18242187  0.03451819     0.73820
N252        N  0.39379361  0.28858355  0.06445036    -0.44960
C253        C  0.58496074  0.17070345  0.90378328     0.44510
N254        N  0.49694026  0.08524936  0.00769569    -0.44950
Co255      Co  0.43023869  0.28045732  0.99931764     0.73890
C256        C  0.39003266  0.31461841  0.93759026    -0.05280
C257        C  0.65098353  0.33868731  0.97861424    -0.04840
N258        N  0.56532779  0.13141859  0.99523519    -0.24370
N259        N  0.53871974  0.39385639  0.98518637    -0.45130
H260        H  0.54177868  0.24043837  0.88841999     0.08520
C261        C  0.38394491  0.13749933  0.01266247    -0.05250
Cl262      Cl  0.51775951  0.23862858  0.99593233    -0.48250
C263        C  0.40184505  0.26519760  0.09084206     0.44280
H264        H  0.60627192  0.08297773  0.96578556     0.08490
N265        N  0.34450973  0.20105563  0.98904803    -0.44960
C266        C  0.40912998  0.76627850  0.09146024     0.44130
N267        N  0.46354658  0.79031444  0.05722383     0.03020
C268        C  0.44093468  0.75908497  0.90780242    -0.04860
H269        H  0.37535798  0.61118889  0.97300908     0.08510
C270        C  0.56340800  0.59582414  0.01608846    -0.05210
Co271      Co  0.41647905  0.78497668  0.99700818     0.74180
N272        N  0.40126115  0.68253142  0.98357301    -0.24390
Co273      Co  0.47361272  0.68933235  0.96172061     0.74070
C274        C  0.51981466  0.56375208  0.00789377     0.44230
N275        N  0.59615003  0.71127283  0.04667136     0.02630
N276        N  0.50600264  0.63347065  0.98809786     0.02740
N277        N  0.40219472  0.81924375  0.93316286    -0.45240
H278        H  0.34136868  0.75581831  0.05804570     0.08500
N279        N  0.37811913  0.71843620  0.99708182     0.03020
N280        N  0.54541043  0.69245858  0.93932613     0.02760
C281        C  0.60077223  0.65895441  0.90973936     0.44370
N282        N  0.56866394  0.74646073  0.05834574    -0.23840
C283        C  0.44579155  0.89256964  0.98087340    -0.04760
N284        N  0.45998612  0.77977556  0.08596021    -0.44950
N285        N  0.54948227  0.67146087  0.91348417    -0.45170
C286        C  0.49190620  0.92282044  0.98693995     0.44140
N287        N  0.41919647  0.78425458  0.95115276     0.03010
N288        N  0.60822086  0.80860362  0.01086414    -0.23870
N289        N  0.41819517  0.78316274  0.04321021    -0.24360
N290        N  0.63154723  0.77233247  0.99734546     0.02650
H291        H  0.63484983  0.87988726  0.02128795     0.08540
H292        H  0.66892323  0.66395869  0.94357609     0.08580
N293        N  0.44219120  0.74849601  0.93711293    -0.24410
N294        N  0.55127946  0.63843975  0.00294567    -0.24020
N295        N  0.50207450  0.85564476  0.00956281     0.03020
C296        C  0.32087440  0.66129557  0.99911466     0.44410
C297        C  0.57986879  0.74969736  0.08686510    -0.05270
N298        N  0.59151151  0.69441099  0.95360240    -0.24020
H299        H  0.59924629  0.58786751  0.02866175     0.08560
N300        N  0.32887901  0.70761324  0.00629004    -0.45240
H301        H  0.56863111  0.77964368  0.10039429     0.08550
C302        C  0.68951899  0.83001256  0.99500711     0.44250
C303        C  0.38118234  0.76819385  0.06312386    -0.04770
Co304      Co  0.53525104  0.80079959  0.03406811     0.73820
N305        N  0.63091477  0.69267534  0.06614641    -0.44960
C306        C  0.41446098  0.80609334  0.90554605     0.44510
N307        N  0.52449091  0.89807267  0.00516240    -0.44950
Co308      Co  0.59397711  0.70376214  0.00006180     0.73890
C309        C  0.62916102  0.67412653  0.93633516    -0.05280
C310        C  0.36822555  0.64480387  0.98384722    -0.04840
N311        N  0.45622670  0.85102109  0.99571498    -0.24370
N312        N  0.48644846  0.58934562  0.99027006    -0.45130
H313        H  0.45704450  0.73708354  0.89046438     0.08520
C314        C  0.64165947  0.84637332  0.01032492    -0.05250
Cl315      Cl  0.50539971  0.74463003  0.99791895    -0.48250
C316        C  0.62134729  0.71482200  0.09221018     0.44280
H317        H  0.41151862  0.89993170  0.96692844     0.08490
N318        N  0.68095348  0.78338185  0.98812982    -0.44960
C319        C  0.11449580  0.97051592  0.08937689     0.44130
N320        N  0.06070966  0.94322241  0.05695719     0.03020
C321        C  0.06383752  0.96928890  0.90706737    -0.04860
H322        H  0.14215457  0.12440551  0.96388773     0.08510
C323        C  0.96155005  0.13791337  0.01378862    -0.05210
Co324      Co  0.10391951  0.94976393  0.99546869     0.74180
N325        N  0.11815432  0.05234819  0.97693755    -0.24390
Co326      Co  0.04345281  0.04447197  0.95795853     0.74070
C327        C  0.00543369  0.16943886  0.00382651     0.44230
N328        N  0.93006401  0.02447889  0.04784787     0.02630
N329        N  0.01362958  0.10123580  0.98313468     0.02740
N330        N  0.10660507  0.91102820  0.93362118    -0.45240
H331        H  0.18009696  0.98459349  0.05420362     0.08500
N332        N  0.14224302  0.01698128  0.99158931     0.03020
N333        N  0.96958837  0.03853010  0.93880702     0.02760
C334        C  0.90843404  0.05220106  0.90675414     0.44370
N335        N  0.95745504  0.98846885  0.05956527    -0.23840
C336        C  0.07279236  0.84183662  0.98338640    -0.04760
N337        N  0.06485356  0.95389410  0.08520768    -0.44950
N338        N  0.96144501  0.04893555  0.91052017    -0.45170
C339        C  0.02635506  0.81196875  0.99088795     0.44140
N340        N  0.09677503  0.94899221  0.94979370     0.03010
N341        N  0.91275517  0.92592550  0.01530024    -0.23870
N342        N  0.10491772  0.95253480  0.04174310    -0.24360
N343        N  0.88893899  0.96281560  0.00170517     0.02650
H344        H  0.88760457  0.85285046  0.02508523     0.08540
H345        H  0.84228466  0.04840500  0.94261875     0.08580
N346        N  0.07146521  0.98380248  0.93505445    -0.24410
N347        N  0.97011267  0.09623557  0.99994534    -0.24020
N348        N  0.01871295  0.87847702  0.01254901     0.03020
C349        C  0.19866660  0.07528353  0.99077046     0.44410
C350        C  0.95264208  0.98787841  0.08876231    -0.05270
N351        N  0.92492336  0.03589297  0.95453347    -0.24020
H352        H  0.92877086  0.14519278  0.02879460     0.08560
N353        N  0.19130186  0.02898616  0.00002732    -0.45240
H354        H  0.96566198  0.95868711  0.10333467     0.08550
C355        C  0.83236868  0.90453535  0.99898065     0.44250
C356        C  0.14149037  0.96991566  0.06047230    -0.04770
Co357      Co  0.98753794  0.93328455  0.03619961     0.73820
N358        N  0.90120360  0.04629619  0.06848264    -0.44960
C359        C  0.08652208  0.92059806  0.90662482     0.44510
N360        N  0.99513170  0.83661087  0.00927346    -0.44950
Co361      Co  0.92700740  0.03073014  0.00102477     0.73890
C362        C  0.88371739  0.04416998  0.93601151    -0.05280
C363        C  0.15060683  0.09065532  0.97533965    -0.04840
N364        N  0.06398422  0.88311110  0.99764908    -0.24370
N365        N  0.03555592  0.14443507  0.98475255    -0.45130
H366        H  0.04227029  0.98885205  0.88989636     0.08520
C367        C  0.87994669  0.88766012  0.01474647    -0.05250
Cl368      Cl  0.01537632  0.98972801  0.99761224    -0.48250
C369        C  0.91518115  0.02536140  0.09502535     0.44280
H370        H  0.10583252  0.83454279  0.96858574     0.08490
N371        N  0.84042608  0.95169532  0.99188397    -0.44960
C372        C  0.89877916  0.51495667  0.09082997     0.44130
N373        N  0.95551265  0.53998850  0.05823321     0.03020
C374        C  0.94736168  0.50982999  0.90839455    -0.04860
H375        H  0.88473207  0.35723842  0.97582698     0.08510
C376        C  0.06602540  0.34768308  0.01718999    -0.05210
Co377      Co  0.91386194  0.53469829  0.99681072     0.74180
N378        N  0.90439830  0.43137173  0.98320521    -0.24390
Co379      Co  0.97724157  0.44086530  0.96224911     0.74070
C380        C  0.02389727  0.31485602  0.00755413     0.44230
N381        N  0.09208036  0.46406456  0.04981955     0.02630
N382        N  0.01004841  0.38497589  0.98820984     0.02740
N383        N  0.90499541  0.56929662  0.93264780    -0.45240
H384        H  0.83390376  0.50476345  0.05575723     0.08500
N385        N  0.87901101  0.46656787  0.99629803     0.03020
N386        N  0.05008058  0.44914176  0.94153573     0.02760
C387        C  0.11087007  0.43402317  0.90945220     0.44370
N388        N  0.06172202  0.49744915  0.06147769    -0.23840
C389        C  0.94239293  0.64352371  0.98151783    -0.04760
N390        N  0.94983875  0.52889427  0.08675204    -0.44950
N391        N  0.05790571  0.43738050  0.91372625    -0.45170
C392        C  0.98707254  0.67450637  0.98944981     0.44140
N393        N  0.92034115  0.53425970  0.95106314     0.03010
N394        N  0.10134614  0.56217571  0.01547062    -0.23870
N395        N  0.91155241  0.53277838  0.04300374    -0.24360
N396        N  0.12678931  0.52709540  0.00201352     0.02650
H397        H  0.12333903  0.63475141  0.02571904     0.08540
H398        H  0.17735054  0.43944519  0.94446988     0.08580
N399        N  0.94540705  0.49905445  0.93761477    -0.24410
N400        N  0.05386013  0.39055902  0.00417833    -0.24020
N401        N  0.99553076  0.60713865  0.01227464     0.03020
C402        C  0.82767907  0.40558052  0.00152791     0.44410
C403        C  0.07342479  0.50211664  0.08986547    -0.05270
N404        N  0.09492304  0.45287799  0.95661823    -0.24020
H405        H  0.10066483  0.34017161  0.03083994     0.08560
N406        N  0.83180878  0.45285594  0.00719435    -0.45240
H407        H  0.06085076  0.53226367  0.10288958     0.08550
C408        C  0.18052000  0.58695837  0.99971086     0.44250
C409        C  0.87312994  0.51736911  0.06187159    -0.04770
Co410      Co  0.02813404  0.55204951  0.03705230     0.73820
N411        N  0.12944233  0.44927717  0.06894286    -0.44960
C412        C  0.92069596  0.55640856  0.90548380     0.44510
N413        N  0.01768311  0.64986985  0.00874869    -0.44950
Co414      Co  0.09321261  0.45796402  0.00317595     0.73890
C415        C  0.13592701  0.44379501  0.93803204    -0.05280
C416        C  0.87485472  0.39146701  0.98524451    -0.04840
N417        N  0.95163621  0.60193389  0.99669760    -0.24370
N418        N  0.99144985  0.34047329  0.98947267    -0.45130
H419        H  0.96625626  0.48848199  0.89159510     0.08520
C420        C  0.13228728  0.60136374  0.01503296    -0.05250
Cl421      Cl  0.00328317  0.49626995  0.99978718    -0.48250
C422        C  0.11908731  0.47145037  0.09487937     0.44280
H423        H  0.90999425  0.65046273  0.96619170     0.08490
N424        N  0.17526999  0.54021896  0.99272541    -0.44960
C425        C  0.63725442  0.09454038  0.83803589     0.44130
N426        N  0.69370945  0.12204921  0.80585723     0.03020
C427        C  0.71682093  0.09243241  0.65428750    -0.04860
H428        H  0.82588625  0.97957438  0.71463930     0.08510
C429        C  0.93712315  0.10173828  0.75361886    -0.05210
Co430      Co  0.67388888  0.09412567  0.74349455     0.74180
N431        N  0.76668953  0.03303902  0.72514379    -0.24390
Co432      Co  0.79641630  0.09493025  0.70450501     0.74070
C433        C  0.94584422  0.05518014  0.73993402     0.44230
N434        N  0.84227260  0.16661745  0.79576331     0.02630
N435        N  0.87000502  0.08457422  0.72580072     0.02740
N436        N  0.63852158  0.08602966  0.67901475    -0.45240
H437        H  0.59485105  0.05095639  0.80205511     0.08500
N438        N  0.72141530  0.03173834  0.74076430     0.03020
N439        N  0.82319391  0.16138533  0.68649184     0.02760
C440        C  0.83426053  0.22513882  0.65930420     0.44370
N441        N  0.79548136  0.16959009  0.80935854    -0.23840
C442        C  0.58598176  0.17404470  0.73498979    -0.04760
N443        N  0.67841646  0.12411560  0.83364475    -0.44950
N444        N  0.81721677  0.17894363  0.65899940    -0.45170
C445        C  0.57765276  0.22183820  0.74682658     0.44140
N446        N  0.67771673  0.09846936  0.69698341     0.03010
N447        N  0.75645935  0.24392923  0.76899880    -0.23870
N448        N  0.66672565  0.09092460  0.79046190    -0.24360
N449        N  0.80368871  0.24479884  0.75593405     0.02650
H450        H  0.69948232  0.29859310  0.78072745     0.08540
H451        H  0.86721462  0.26761800  0.69786641     0.08580
N452        N  0.72418812  0.10103954  0.68296215    -0.24410
N453        N  0.88908618  0.11705423  0.74357011    -0.24020
N454        N  0.65253859  0.19360523  0.76292029     0.03020
C455        C  0.75269154  0.96065333  0.74324759     0.44410
C456        C  0.80104946  0.15533013  0.83766498    -0.05270
N457        N  0.84344615  0.19341572  0.70439686    -0.24020
H458        H  0.96310309  0.12118168  0.76816609     0.08560
N459        N  0.71131519  0.98821641  0.75211018    -0.45240
H460        H  0.76919369  0.15087664  0.85377940     0.08550
C461        C  0.77751259  0.31755900  0.75628972     0.44250
C462        C  0.62859173  0.07214128  0.80895810    -0.04770
Co463      Co  0.72459307  0.18273891  0.78677337     0.73820
N464        N  0.87994710  0.14832327  0.81337601    -0.44960
C465        C  0.66015757  0.08248265  0.65160144     0.44510
N466        N  0.62002300  0.23132106  0.76421339    -0.44950
Co467      Co  0.84634223  0.18094893  0.75009319     0.73890
C468        C  0.85270369  0.23440864  0.68897583    -0.05280
C469        C  0.78891704  0.98952484  0.72548372    -0.04840
N470        N  0.63331382  0.15951696  0.74608845    -0.24370
N471        N  0.90266082  0.04716460  0.72290949    -0.45130
H472        H  0.74858023  0.08538106  0.63856822     0.08520
C473        C  0.73680976  0.28830950  0.77035625    -0.05250
Cl474      Cl  0.76020147  0.13804984  0.74616250    -0.48250
C475        C  0.85649596  0.14126075  0.84023907     0.44280
H476        H  0.55987434  0.15300464  0.72141089     0.08490
N477        N  0.81821347  0.28902493  0.74776120    -0.44960
C478        C  0.66453585  0.58495120  0.84505483     0.44130
N479        N  0.70826444  0.62056348  0.80995163     0.03020
C480        C  0.71556887  0.59262107  0.65784499    -0.04860
H481        H  0.83011501  0.48109375  0.71327817     0.08510
C482        C  0.93875467  0.60400294  0.75462696    -0.05210
Co483      Co  0.68094380  0.59304631  0.74839267     0.74180
N484        N  0.77226227  0.53408528  0.72667979    -0.24390
Co485      Co  0.79846459  0.59740345  0.70580668     0.74070
C486        C  0.94411452  0.55574451  0.74301910     0.44230
N487        N  0.85326205  0.67130396  0.79538126     0.02630
N488        N  0.87272267  0.58841700  0.72572471     0.02740
N489        N  0.63988841  0.58235827  0.68456809    -0.45240
H490        H  0.61896991  0.53932778  0.81115013     0.08500
N491        N  0.72876897  0.53176876  0.74368319     0.03020
N492        N  0.82242501  0.66438437  0.68715653     0.02760
C493        C  0.83174292  0.72770067  0.65931557     0.44370
N494        N  0.80837493  0.67157649  0.81089544    -0.23840
C495        C  0.59151528  0.67219402  0.74253167    -0.04760
N496        N  0.70032670  0.61895344  0.83867752    -0.44950
N497        N  0.81526347  0.68129061  0.65960763    -0.45170
C498        C  0.58379135  0.71989886  0.75458244     0.44140
N499        N  0.67943571  0.59765717  0.70149389     0.03010
N500        N  0.76177975  0.74514949  0.77236748    -0.23870
N501        N  0.68099360  0.58839933  0.79554843    -0.24360
N502        N  0.80690132  0.74765168  0.75720555     0.02650
H503        H  0.70434358  0.79770192  0.78663596     0.08540
H504        H  0.86653432  0.77104906  0.69704199     0.08580
N505        N  0.72450467  0.60221684  0.68623203    -0.24410
N506        N  0.89291990  0.62127587  0.74284875    -0.24020
N507        N  0.65951905  0.69184575  0.76936715     0.03020
C508        C  0.76047052  0.46080342  0.74425450     0.44410
C509        C  0.81916851  0.65752644  0.83883648    -0.05270
N510        N  0.84325072  0.69694264  0.70446407    -0.24020
H511        H  0.96397044  0.62212660  0.77017606     0.08560
N512        N  0.71992029  0.48781534  0.75465022    -0.45240
H513        H  0.79024996  0.65150735  0.85638850     0.08550
C514        C  0.77796921  0.81939996  0.75903880     0.44250
C515        C  0.65052829  0.56438576  0.81606474    -0.04770
Co516      Co  0.73426270  0.68267681  0.79075796     0.73820
N517        N  0.89465224  0.65549834  0.81114907    -0.44960
C518        C  0.65965053  0.57930673  0.65661079     0.44510
N519        N  0.62720323  0.72963014  0.77106718    -0.44950
Co520      Co  0.85079294  0.68495589  0.74989257     0.73890
C521        C  0.85135526  0.73773430  0.68864665    -0.05280
C522        C  0.79461080  0.49059622  0.72566934    -0.04840
N523        N  0.63943781  0.65770832  0.75284639    -0.24370
N524        N  0.90199408  0.54865393  0.72525696    -0.45130
H525        H  0.74662005  0.58627025  0.64158238     0.08520
C526        C  0.74066798  0.78878086  0.77479043    -0.05250
Cl527      Cl  0.76587165  0.63953506  0.74859082    -0.48250
C528        C  0.87605567  0.64690891  0.83889781     0.44280
H529        H  0.56510348  0.65149840  0.72893107     0.08490
N530        N  0.81832949  0.79233277  0.74842976    -0.44960
C531        C  0.35482952  0.40824197  0.84603146     0.44130
N532        N  0.31761206  0.37626390  0.80902789     0.03020
C533        C  0.28796392  0.45663919  0.66390483    -0.04860
H534        H  0.18483721  0.54706791  0.73092439     0.08510
C535        C  0.07360188  0.40931490  0.76241981    -0.05210
Co536      Co  0.33528692  0.42525038  0.75040227     0.74180
N537        N  0.24186762  0.48979860  0.73855743    -0.24390
Co538      Co  0.21273480  0.43318307  0.71367153     0.74070
C539        C  0.06591416  0.45973534  0.75281422     0.44230
N540        N  0.17098550  0.33166341  0.79751476     0.02630
N541        N  0.14160674  0.43502275  0.73692970     0.02740
N542        N  0.36709877  0.45929710  0.68762397    -0.45240
H543        H  0.39074169  0.46905306  0.81593078     0.08500
N544        N  0.28775766  0.48731815  0.75311066     0.03020
N545        N  0.18423929  0.37335636  0.69034243     0.02760
C546        C  0.16004347  0.32283580  0.65801206     0.44370
N547        N  0.21787355  0.32448430  0.81012208    -0.23840
C548        C  0.42796157  0.35107512  0.73680309    -0.04760
N549        N  0.32615053  0.37100991  0.83751236    -0.44950
N550        N  0.18204265  0.36693029  0.66124611    -0.45170
C551        C  0.43823737  0.30060264  0.74506584     0.44140
N552        N  0.33083974  0.43568131  0.70399306     0.03010
N553        N  0.25850895  0.26665836  0.76176974    -0.23870
N554        N  0.33921000  0.41529206  0.79701299    -0.24360
N555        N  0.21088170  0.26890914  0.74946754     0.02650
H556        H  0.32099568  0.21318576  0.76313389     0.08540
H557        H  0.13134887  0.26815740  0.69338847     0.08580
N558        N  0.28378786  0.43535882  0.69068593    -0.24410
N559        N  0.12220905  0.39731810  0.75159867    -0.24020
N560        N  0.36030747  0.32073696  0.76097461     0.03020
C561        C  0.25913408  0.55900164  0.75941378     0.44410
C562        C  0.21252484  0.33033518  0.83934972    -0.05270
N563        N  0.16489929  0.33607331  0.70566672    -0.24020
H564        H  0.04654719  0.38544850  0.77445200     0.08560
N565        N  0.30029456  0.52863642  0.76537730    -0.45240
H566        H  0.24434994  0.33001773  0.85532414     0.08550
C567        C  0.24396523  0.20141372  0.73726371     0.44250
C568        C  0.36532920  0.43785436  0.81889107    -0.04770
Co569      Co  0.28866427  0.32120555  0.78556356     0.73820
N570        N  0.13406772  0.34577591  0.81670495    -0.44960
C571        C  0.34267485  0.47294557  0.66203918     0.44510
N572        N  0.39499185  0.28462407  0.76035318    -0.44950
Co573      Co  0.16571575  0.33269110  0.75139180     0.73890
C574        C  0.14841628  0.30264640  0.68713864    -0.05280
C575        C  0.22104127  0.53376885  0.74137973    -0.04840
N576        N  0.37869967  0.36036705  0.74759239    -0.24370
N577        N  0.10927721  0.47262524  0.73690508    -0.45130
H578        H  0.25436203  0.46857383  0.65056351     0.08520
C579        C  0.28199218  0.22511402  0.75565143    -0.05250
Cl580      Cl  0.25083133  0.37811910  0.75008186    -0.48250
C581        C  0.15756654  0.34525690  0.84364750     0.44280
H582        H  0.45447080  0.37712311  0.72622701     0.08490
N583        N  0.19990791  0.22951384  0.73467281    -0.44960
C584        C  0.14483387  0.84611912  0.84234862     0.44130
N585        N  0.19859898  0.87424864  0.80906635     0.03020
C586        C  0.21961273  0.82925910  0.65915451    -0.04860
H587        H  0.33028067  0.72014226  0.72602756     0.08510
C588        C  0.44110133  0.85417161  0.75603490    -0.05210
Co589      Co  0.17783645  0.83897604  0.74828756     0.74180
N590        N  0.27130642  0.77554834  0.73324513    -0.24390
Co591      Co  0.29964453  0.83590179  0.70909700     0.74070
C592        C  0.45042242  0.80573029  0.74542609     0.44230
N593        N  0.34711333  0.92200997  0.79485122     0.02630
N594        N  0.37349265  0.83052653  0.73049636     0.02740
N595        N  0.14100716  0.82659627  0.68397562    -0.45240
H596        H  0.10474920  0.79710813  0.80845508     0.08500
N597        N  0.22562674  0.77619358  0.74844931     0.03020
N598        N  0.32456447  0.90053707  0.68725192     0.02760
C599        C  0.33418602  0.96097944  0.65711951     0.44370
N600        N  0.30110940  0.92366659  0.80934067    -0.23840
C601        C  0.08764432  0.91774210  0.73751528    -0.04760
N602        N  0.18363065  0.87796286  0.83682871    -0.44950
N603        N  0.31727618  0.91466552  0.65912300    -0.45170
C604        C  0.07868505  0.96661517  0.74793410     0.44140
N605        N  0.18086488  0.83823125  0.70173791     0.03010
N606        N  0.25702334  0.99294313  0.76541100    -0.23870
N607        N  0.17289246  0.84057696  0.79499978    -0.24360
N608        N  0.30302905  0.99317854  0.75106115     0.02650
H609        H  0.19386884  0.04525376  0.77013913     0.08540
H610        H  0.36842977  0.00836282  0.69278683     0.08580
N611        N  0.22731009  0.83862396  0.68766621    -0.24410
N612        N  0.39233744  0.86642471  0.74572310    -0.24020
N613        N  0.15470422  0.94040740  0.76408732     0.03020
C614        C  0.25648290  0.70484028  0.75531744     0.44410
C615        C  0.30958598  0.90948490  0.83758520    -0.05270
N616        N  0.34474836  0.93521881  0.70318944    -0.24020
H617        H  0.46704132  0.87667980  0.76879832     0.08560
N618        N  0.21487853  0.73405898  0.76168172    -0.45240
H619        H  0.27903944  0.90330587  0.85426409     0.08550
C620        C  0.26792602  0.06182076  0.74181657     0.44250
C621        C  0.13692318  0.82094871  0.81431766    -0.04770
Co622      Co  0.22810091  0.93341443  0.78727138     0.73820
N623        N  0.38677927  0.90526008  0.81161973    -0.44960
C624        C  0.16258160  0.82154841  0.65663489     0.44510
N625        N  0.12162073  0.97784409  0.76441578    -0.44950
Co626      Co  0.34833004  0.92996404  0.74889841     0.73890
C627        C  0.35365470  0.97403641  0.68579586    -0.05280
C628        C  0.29335625  0.73177533  0.73625235    -0.04840
N629        N  0.13568664  0.90454872  0.74858792    -0.24370
N630        N  0.40708501  0.79355265  0.72961642    -0.45130
H631        H  0.25099536  0.82191098  0.64327269     0.08520
C632        C  0.23254867  0.03518536  0.76134968    -0.05250
Cl633      Cl  0.26331653  0.88437996  0.74835533    -0.48250
C634        C  0.36623669  0.89737530  0.83901568     0.44280
H635        H  0.06143004  0.89527119  0.72490200     0.08490
N636        N  0.31152241  0.03459706  0.73651035    -0.44960
C637        C  0.59320679  0.92859511  0.40827939     0.44130
N638        N  0.57415573  0.98427375  0.43812048     0.03020
C639        C  0.55229331  0.97333268  0.58902490    -0.04860
H640        H  0.44849133  0.83550995  0.53122139     0.08510
C641        C  0.33597006  0.96189193  0.48749566    -0.05210
Co642      Co  0.59580017  0.95478753  0.50113074     0.74180
N643        N  0.50617315  0.89052250  0.51985686    -0.24390
Co644      Co  0.47482401  0.94955661  0.53862627     0.74070
C645        C  0.32897991  0.91298559  0.49951407     0.44230
N646        N  0.42689455  0.04151702  0.44957908     0.02630
N647        N  0.40313765  0.94081634  0.51519224     0.02740
N648        N  0.63053330  0.98089820  0.56412631    -0.45240
H649        H  0.62365776  0.87822160  0.44571591     0.08500
N650        N  0.55261811  0.89068530  0.50594993     0.03020
N651        N  0.44326534  0.00838908  0.55793185     0.02760
C652        C  0.38730342  0.03511637  0.58962209     0.44370
N653        N  0.47339701  0.04182142  0.43554297    -0.23840
C654        C  0.68643959  0.03264119  0.50575714    -0.04760
N655        N  0.57308155  0.97347181  0.40969875    -0.44950
N656        N  0.42753446  0.00446441  0.58566723    -0.45170
C657        C  0.69492440  0.08095657  0.49303270     0.44140
N658        N  0.59252259  0.96351699  0.54702973     0.03010
N659        N  0.51504858  0.10545873  0.47837075    -0.23870
N660        N  0.59383446  0.94916013  0.45513779    -0.24360
N661        N  0.46937944  0.10491056  0.49353318     0.02650
H662        H  0.57412852  0.16003019  0.46868311     0.08540
H663        H  0.34634386  0.08248813  0.55353144     0.08580
N664        N  0.54601470  0.96028710  0.56094890    -0.24410
N665        N  0.38315802  0.97611679  0.49841063    -0.24020
N666        N  0.61872629  0.05441627  0.47888383     0.03020
C667        C  0.52451205  0.81867925  0.50508581     0.44410
C668        C  0.46525534  0.05117600  0.40674019    -0.05270
N669        N  0.41684224  0.04123221  0.54242003    -0.24020
H670        H  0.30925177  0.98363804  0.47395641     0.08560
N671        N  0.56583053  0.84736478  0.49672656    -0.45240
H672        H  0.49635317  0.05952187  0.39061906     0.08550
C673        C  0.50022532  0.17555351  0.49691994     0.44250
C674        C  0.60739070  0.91238119  0.43808097    -0.04770
Co675      Co  0.54558181  0.04676203  0.45721773     0.73820
N676        N  0.38670565  0.05251571  0.43155921    -0.44480
C677        C  0.60799852  0.98708175  0.59108717     0.44510
N678        N  0.65153062  0.09186227  0.47647869    -0.44950
Co679      Co  0.42307576  0.04195485  0.49583372     0.73890
C680        C  0.37937011  0.05987364  0.56062287    -0.05280
C681        C  0.48551409  0.84654749  0.52050864    -0.04840
N682        N  0.63814294  0.01925706  0.49575517    -0.24370
N683        N  0.37163482  0.90255730  0.51664238    -0.45130
H684        H  0.52064459  0.97780109  0.60511643     0.08520
C685        C  0.53705554  0.14880080  0.47927855    -0.05250
Cl686      Cl  0.50972010  0.99831877  0.49812494    -0.48250
C687        C  0.40793533  0.05810597  0.40409143     0.44280
H688        H  0.71275349  0.01083818  0.51953934     0.08490
N689        N  0.45856162  0.14716105  0.50507859    -0.44960
C690        C  0.59319704  0.42467105  0.41245601     0.44130
N691        N  0.57431205  0.48046408  0.44243346     0.03020
C692        C  0.55561968  0.46741907  0.59402252    -0.04860
H693        H  0.44589584  0.33479229  0.53546524     0.08510
C694        C  0.33705036  0.46553456  0.49284884    -0.05210
Co695      Co  0.59690573  0.45080189  0.50546166     0.74180
N696        N  0.50534567  0.38842452  0.52440022    -0.24390
Co697      Co  0.47636994  0.44791480  0.54347501     0.74070
C698        C  0.32847572  0.41606033  0.50401368     0.44230
N699        N  0.42983529  0.54546287  0.45519237     0.02630
N700        N  0.40355609  0.44210658  0.52033864     0.02740
N701        N  0.63306220  0.47659798  0.56869205    -0.45240
H702        H  0.62343973  0.37419929  0.44989496     0.08500
N703        N  0.55172013  0.38769305  0.51041147     0.03020
N704        N  0.44872786  0.50762902  0.56298414     0.02760
C705        C  0.40984727  0.54539460  0.59764983     0.44370
N706        N  0.47597570  0.54348907  0.44074830    -0.23840
C707        C  0.69002771  0.52712445  0.50911643    -0.04760
N708        N  0.57349788  0.46979055  0.41395208    -0.44950
N709        N  0.44065725  0.50786768  0.59166609    -0.45170
C710        C  0.69871122  0.57513486  0.49582429     0.44140
N711        N  0.59474656  0.45966242  0.55153828     0.03010
N712        N  0.52201271  0.60391187  0.48344330    -0.23870
N713        N  0.59376391  0.44514813  0.45940546    -0.24360
N714        N  0.47691878  0.60507259  0.49905236     0.02650
H715        H  0.58202388  0.65688238  0.47207300     0.08540
H716        H  0.37096197  0.59840081  0.56358468     0.08580
N717        N  0.54851022  0.45598686  0.56568927    -0.24410
N718        N  0.38459404  0.47864233  0.50414057    -0.24020
N719        N  0.62205586  0.54923742  0.48268666     0.03020
C720        C  0.52130527  0.31655555  0.50914840     0.44410
C721        C  0.46936394  0.56047269  0.41301184    -0.05270
N722        N  0.42538150  0.54330668  0.54844183    -0.24020
H723        H  0.31135843  0.48804348  0.47914973     0.08560
N724        N  0.56325704  0.34434726  0.50064463    -0.45240
H725        H  0.50164948  0.57049832  0.39799820     0.08550
C726        C  0.51014836  0.67516778  0.50120539     0.44250
C727        C  0.60705382  0.40832900  0.44229715    -0.04770
Co728      Co  0.54871258  0.54406439  0.46187166     0.73820
N729        N  0.39184985  0.56556359  0.43856453    -0.44960
C730        C  0.61113162  0.48167441  0.59598031     0.44510
N731        N  0.65519746  0.58615741  0.47965367    -0.44950
Co732      Co  0.42790694  0.54381892  0.50167074     0.73890
C733        C  0.39820153  0.56911886  0.56864685    -0.05280
C734        C  0.48331692  0.34501299  0.52487075    -0.04840
N735        N  0.64115714  0.51414274  0.49967752    -0.24370
N736        N  0.37114384  0.40430360  0.52093295    -0.45130
H737        H  0.52467408  0.47066183  0.61058578     0.08520
C738        C  0.54546428  0.64673694  0.48359775    -0.05250
Cl739      Cl  0.51226556  0.49656135  0.50292485    -0.48250
C740        C  0.41393124  0.57535147  0.41168551     0.44280
H741        H  0.71645535  0.50531669  0.52282214     0.08490
N742        N  0.46763211  0.64814637  0.50985833    -0.44960
C743        C  0.08458279  0.16446030  0.41191682     0.44130
N744        N  0.07437600  0.22625264  0.43895874     0.03020
C745        C  0.05587228  0.22782676  0.58963479    -0.04860
H746        H  0.94647471  0.08610397  0.53463647     0.08510
C747        C  0.83791591  0.21519341  0.48743216    -0.05210
Co748      Co  0.09705858  0.20099812  0.50261910     0.74180
N749        N  0.00567103  0.13967653  0.52273998    -0.24390
Co750      Co  0.97581320  0.20080908  0.54001282     0.74070
C751        C  0.82859934  0.16671818  0.49986763     0.44230
N752        N  0.93163775  0.29562818  0.44916513     0.02630
N753        N  0.90356536  0.19310169  0.51606879     0.02740
N754        N  0.13389604  0.23013976  0.56413893    -0.45240
H755        H  0.11571470  0.11805262  0.45075576     0.08500
N756        N  0.05225779  0.13826632  0.50906194     0.03020
N757        N  0.94563718  0.26071304  0.55836699     0.02760
C758        C  0.89313068  0.29242524  0.59002782     0.44370
N759        N  0.97821905  0.29252798  0.43523043    -0.23840
C760        C  0.19001871  0.27744960  0.50645846    -0.04760
N761        N  0.06870939  0.21115377  0.41141400    -0.44950
N762        N  0.93050598  0.25891667  0.58627024    -0.45170
C763        C  0.19948893  0.32534575  0.49314846     0.44140
N764        N  0.09463091  0.21261530  0.54799360     0.03010
N765        N  0.02298563  0.35332513  0.47813723    -0.23870
N766        N  0.09337170  0.19214735  0.45701411    -0.24360
N767        N  0.97739177  0.35443132  0.49344184     0.02650
H768        H  0.08401721  0.40632223  0.46846215     0.08540
H769        H  0.85487803  0.34089411  0.55348143     0.08580
N770        N  0.04818592  0.21197181  0.56216844    -0.24410
N771        N  0.88529450  0.22856397  0.49866278    -0.24020
N772        N  0.12390324  0.29829661  0.47822378     0.03020
C773        C  0.02292812  0.06653194  0.50947684     0.44410
C774        C  0.97372509  0.31182705  0.40785425    -0.05270
N775        N  0.92109605  0.29415430  0.54244010    -0.24020
H776        H  0.81242897  0.23725437  0.47334707     0.08560
N777        N  0.06447451  0.09435772  0.50052939    -0.45240
H778        H  0.00730723  0.32205648  0.39380275     0.08550
C779        C  0.01095391  0.42403307  0.49699723     0.44250
C780        C  0.10190581  0.15223658  0.44174110    -0.04770
Co781      Co  0.05031421  0.29237891  0.45703642     0.73820
N782        N  0.89576412  0.31896873  0.43254595    -0.44960
C783        C  0.11248138  0.23978823  0.59082307     0.44510
N784        N  0.15686250  0.33565143  0.47590637    -0.44950
Co785      Co  0.92785375  0.29375412  0.49580127     0.73890
C786        C  0.88583790  0.31603665  0.56060798    -0.05280
C787        C  0.98413229  0.09591389  0.52417191    -0.04840
N788        N  0.14208730  0.26378014  0.49591436    -0.24370
N789        N  0.87061370  0.15568885  0.51750425    -0.45130
H790        H  0.02496270  0.23487895  0.60574625     0.08520
C791        C  0.04664437  0.39610140  0.47912333    -0.05250
Cl792      Cl  0.01224927  0.24700235  0.49856336    -0.48250
C793        C  0.91946195  0.32981773  0.40618473     0.44280
H794        H  0.21506619  0.25649930  0.52141870     0.08490
N795        N  0.96830105  0.39691505  0.50501366    -0.44960
C796        C  0.09872496  0.67269612  0.41040251     0.44130
N797        N  0.07822032  0.72980407  0.43923663     0.03020
C798        C  0.04984329  0.72161804  0.59025057    -0.04860
H799        H  0.94878315  0.58357526  0.53263371     0.08510
C800        C  0.83802388  0.71166775  0.48555034    -0.05210
Co801      Co  0.09694478  0.70200841  0.50295035     0.74180
N802        N  0.00629724  0.63872368  0.52105669    -0.24390
Co803      Co  0.97440405  0.69889098  0.53852976     0.74070
C804        C  0.83023524  0.66293017  0.49805993     0.44230
N805        N  0.93208724  0.79425815  0.44752405     0.02630
N806        N  0.90428182  0.69081948  0.51388295     0.02740
N807        N  0.12953266  0.72757202  0.56654629    -0.45240
H808        H  0.12679286  0.62368000  0.44903866     0.08500
N809        N  0.05340739  0.63851048  0.50787387     0.03020
N810        N  0.94245266  0.75825780  0.55683463     0.02760
C811        C  0.89087970  0.79091836  0.58854135     0.44370
N812        N  0.97949138  0.79220034  0.43439853    -0.23840
C813        C  0.18796200  0.77884316  0.50800745    -0.04760
N814        N  0.07851477  0.71778079  0.41095836    -0.44950
N815        N  0.92742355  0.75669222  0.58475687    -0.45170
C816        C  0.19709819  0.82663610  0.49477588     0.44140
N817        N  0.09172413  0.71172701  0.54874037     0.03010
N818        N  0.02010998  0.85406966  0.47805100    -0.23870
N819        N  0.09693015  0.69513544  0.45698283    -0.24360
N820        N  0.97375484  0.85425731  0.49257665     0.02650
H821        H  0.07980233  0.90839286  0.46873868     0.08540
H822        H  0.85362792  0.84032843  0.55210182     0.08580
N823        N  0.04451323  0.70930333  0.56197438    -0.24410
N824        N  0.88522251  0.72602615  0.49657676    -0.24020
N825        N  0.12169752  0.80034473  0.48004783     0.03020
C826        C  0.02657085  0.56615839  0.50808974     0.44410
C827        C  0.97592011  0.81051078  0.40675081    -0.05270
N828        N  0.91842211  0.79206765  0.54090184    -0.24020
H829        H  0.81157977  0.73329962  0.47176213     0.08560
N830        N  0.06756092  0.59495835  0.49957984    -0.45240
H831        H  0.00992196  0.82113573  0.39312290     0.08550
C832        C  0.00462386  0.92499018  0.49586756     0.44250
C833        C  0.11114506  0.65761747  0.44065863    -0.04770
Co834      Co  0.05013350  0.79389459  0.45749477     0.73820
N835        N  0.89639470  0.81619283  0.43006496    -0.44960
C836        C  0.10586703  0.73366230  0.59322437     0.44510
N837        N  0.15474767  0.83742588  0.47757672    -0.44950
Co838      Co  0.92626362  0.79220349  0.49423131     0.73890
C839        C  0.88379217  0.81460139  0.55912453    -0.05280
C840        C  0.98621575  0.59444928  0.52231416    -0.04840
N841        N  0.14001740  0.76558617  0.49755753    -0.24370
N842        N  0.87242695  0.65285582  0.51552038    -0.45130
H843        H  0.01769291  0.72596190  0.60606543     0.08520
C844        C  0.04227338  0.89749782  0.47895091    -0.05250
Cl845      Cl  0.01168362  0.74670081  0.49811211    -0.48250
C846        C  0.92119550  0.82690351  0.40394378     0.44280
H847        H  0.21357167  0.75727290  0.52233039     0.08490
N848        N  0.96261050  0.89680066  0.50359903    -0.44960
C849        C  0.01700642  0.47368340  0.50211052    -0.11600
C850        C  0.02373647  0.51583902  0.50461815    -0.13160
C851        C  0.01744947  0.01655167  0.50490523    -0.11600
C852        C  0.00986561  0.97463593  0.50156016    -0.13160
C853        C  0.24492387  0.35739054  0.49698853    -0.11600
C854        C  0.28252668  0.38472422  0.49985496    -0.13160
C855        C  0.78360379  0.63239826  0.49674355    -0.11600
C856        C  0.74553998  0.60546561  0.49681280    -0.13160
C857        C  0.28253885  0.88257767  0.49761443    -0.11600
C858        C  0.24394509  0.85651504  0.49668660    -0.13160
C859        C  0.52219973  0.76803190  0.50331482    -0.11600
C860        C  0.51499121  0.72560574  0.50347973    -0.13160
C861        C  0.50603870  0.22501951  0.50239475    -0.11600
C862        C  0.51546524  0.26672915  0.50486363    -0.13160
C863        C  0.74196531  0.11132329  0.49531224    -0.11600
C864        C  0.78124434  0.13686059  0.49709378    -0.13160
C865        C  0.33401717  0.99280084  0.63132953    -0.11600
C866        C  0.34825876  0.01961550  0.61126440    -0.13160
C867        C  0.14023599  0.79167171  0.63439287    -0.11600
C868        C  0.12582811  0.76470488  0.61554341    -0.13160
C869        C  0.35965921  0.51241383  0.64290487    -0.11600
C870        C  0.37649692  0.53864480  0.62323790    -0.13160
C871        C  0.14982935  0.29861791  0.63082266    -0.11600
C872        C  0.13573323  0.27229817  0.61147889    -0.13160
C873        C  0.25821914  0.65371925  0.76112746    -0.11600
C874        C  0.26023934  0.61033597  0.76247812    -0.13160
C875        C  0.24841353  0.15208083  0.73012413    -0.11600
C876        C  0.25883941  0.11003647  0.73171668    -0.13160
C877        C  0.64063857  0.54542865  0.63537708    -0.11600
C878        C  0.62925687  0.51577246  0.61729754    -0.13160
C879        C  0.83673518  0.75931812  0.63351910    -0.11600
C880        C  0.85300577  0.78217939  0.61212734    -0.13160
C881        C  0.98383559  0.51950014  0.75013371    -0.11600
C882        C  0.01876107  0.48967419  0.75355902    -0.13160
C883        C  0.49789690  0.77615871  0.74899644    -0.11600
C884        C  0.53721176  0.75072702  0.75157323    -0.13160
C885        C  0.62699616  0.02088485  0.61213034    -0.11600
C886        C  0.64008557  0.05015809  0.62996108    -0.13160
C887        C  0.83866093  0.25794266  0.63403209    -0.11600
C888        C  0.85471997  0.28208764  0.61312021    -0.13160
C889        C  0.99230711  0.02338520  0.74241979    -0.11600
C890        C  0.03121920  0.99694442  0.74452910    -0.13160
C891        C  0.76031471  0.91107699  0.75000415    -0.11600
C892        C  0.77052288  0.86940661  0.75386654    -0.13160
C893        C  0.76731371  0.41060181  0.74935919    -0.11600
C894        C  0.77451444  0.36822213  0.75221491    -0.13160
C895        C  0.52962439  0.25110523  0.74473767    -0.11600
C896        C  0.48859470  0.27460086  0.74399754    -0.13160
C897        C  0.91330684  0.58639539  0.87949469    -0.11600
C898        C  0.90069540  0.61445477  0.85996147    -0.13160
C899        C  0.14216890  0.37679536  0.86699161    -0.11600
C900        C  0.13144340  0.40419763  0.88647433    -0.13160
C901        C  0.87518722  0.10833724  0.86282344    -0.11600
C902        C  0.88745717  0.08091365  0.88273016    -0.13160
C903        C  0.10580546  0.86037798  0.86391642    -0.11600
C904        C  0.08978330  0.88688851  0.88287728    -0.13160
C905        C  0.01317978  0.76449999  0.98208220    -0.11600
C906        C  0.99825876  0.72349424  0.98144244    -0.13160
C907        C  0.01346560  0.21997544  0.00939136    -0.11600
C908        C  0.02043616  0.26301916  0.01073555    -0.13160
C909        C  0.61593501  0.62157486  0.88954777    -0.11600
C910        C  0.63104838  0.59545631  0.87008188    -0.13160
C911        C  0.40329450  0.83598807  0.87976347    -0.11600
C912        C  0.38918677  0.86428755  0.86055516    -0.13160
C913        C  0.22974855  0.61349681  0.99919628    -0.11600
C914        C  0.27046139  0.63663302  0.99984410    -0.13160
C915        C  0.78244446  0.87801801  0.99537062    -0.11600
C916        C  0.74092859  0.85506260  0.99406586    -0.13160
C917        C  0.58585633  0.13721594  0.87955919    -0.11600
C918        C  0.59926709  0.11037129  0.85999867    -0.13160
C919        C  0.40072615  0.37235647  0.89159671    -0.11600
C920        C  0.38568476  0.39988523  0.87221559    -0.13160
C921        C  0.28761071  0.12729456  0.99397512    -0.11600
C922        C  0.24760684  0.10276445  0.99289011    -0.13160
C923        C  0.51339112  0.46884995  0.00934591    -0.11600
C924        C  0.51777749  0.51203427  0.01058886    -0.13160
C925        C  0.50114215  0.97209479  0.97944791    -0.11600
C926        C  0.51458082  0.01335488  0.98022674    -0.13160
C927        C  0.74208980  0.35115219  0.00259583    -0.11600
C928        C  0.78016915  0.37724173  0.00443460    -0.13160
C929        C  0.38049724  0.71185606  0.13790286    -0.11600
C930        C  0.39411931  0.73731806  0.11710213    -0.13160
C931        C  0.17514526  0.51757976  0.13257393    -0.11600
C932        C  0.15897642  0.48993881  0.11441255    -0.13160
C933        C  0.37402363  0.63739879  0.37251688    -0.11600
C934        C  0.39420301  0.61198868  0.39145108    -0.13160
C935        C  0.10541097  0.64428339  0.38439796    -0.11600
C936        C  0.11474046  0.61895643  0.36363559    -0.13160
C937        C  0.33943219  0.22280980  0.12900010    -0.11600
C938        C  0.35977810  0.24907131  0.11044269    -0.13160
C939        C  0.13405028  0.02812246  0.13383608    -0.11600
C940        C  0.12608201  0.00165248  0.11351898    -0.13160
C941        C  0.25017401  0.84771015  0.26085264    -0.11600
C942        C  0.24504538  0.89110509  0.26109131    -0.13160
C943        C  0.24607544  0.39278306  0.22960758    -0.11600
C944        C  0.25949947  0.35167057  0.22763853    -0.13160
C945        C  0.38516180  0.08922112  0.38169820    -0.11600
C946        C  0.37148081  0.11723533  0.36239197    -0.13160
C947        C  0.10534914  0.10938484  0.36660273    -0.11600
C948        C  0.08932960  0.13347614  0.38680035    -0.13160
C949        C  0.67638221  0.75113832  0.13398053    -0.11600
C950        C  0.66043256  0.72688357  0.11401551    -0.13160
C951        C  0.86261582  0.98496607  0.13748835    -0.11600
C952        C  0.87935832  0.01346141  0.11898865    -0.13160
C953        C  0.97136662  0.75059869  0.24882470    -0.11600
C954        C  0.01129487  0.72631666  0.24702631    -0.13160
C955        C  0.52464888  0.98402144  0.24560221    -0.11600
C956        C  0.48726182  0.01152187  0.24738011    -0.13160
C957        C  0.60024648  0.90210339  0.38173064    -0.11600
C958        C  0.61212244  0.87788772  0.36097370    -0.13160
C959        C  0.88776819  0.89343586  0.36501544    -0.11600
C960        C  0.90494753  0.86560173  0.38380491    -0.13160
C961        C  0.65174101  0.26398968  0.13280708    -0.11600
C962        C  0.64070706  0.24023319  0.11166336    -0.13160
C963        C  0.87020760  0.45461217  0.13412011    -0.11600
C964        C  0.88335059  0.48304587  0.11483963    -0.13160
C965        C  0.97627539  0.25464087  0.24968074    -0.11600
C966        C  0.01815441  0.23237055  0.24803992    -0.13160
C967        C  0.73327286  0.63326578  0.25404762    -0.11600
C968        C  0.74097643  0.59113970  0.25172104    -0.13160
C969        C  0.74803763  0.09278844  0.24584089    -0.11600
C970        C  0.73916511  0.13434726  0.24964287    -0.13160
C971        C  0.51052951  0.47499289  0.24593748    -0.11600
C972        C  0.47155483  0.50085600  0.24835365    -0.13160
C973        C  0.60147442  0.39842665  0.38576866    -0.11600
C974        C  0.61385766  0.37427224  0.36497523    -0.13160
C975        C  0.90301844  0.36920144  0.38667282    -0.11600
C976        C  0.88501233  0.39674715  0.36801010    -0.13160
loop_ 
_geom_bond_atom_site_label_1 
_geom_bond_atom_site_label_2 
_geom_bond_distance 
_geom_bond_site_symmetry_2 
_ccdc_geom_bond_type 
C1           N19   1.330       .  A
C1           C38   1.482       .  S
C1          C976   1.435       .  S
N2           N19   1.311       .  A
N2           N24   1.314       .  A
N2          Co39   2.028       .  S
C3           N28   1.335       .  A
C3           C41   1.449       .  S
C3           H48   1.082       .  S
H4           C45   1.082       .  S
C5           N29   1.348       .  A
C5            C9   1.464       .  S
C5           H34   1.081       .  S
Co6          N24   2.117       .  S
Co6          N14   2.097       .  S
Co6          N46   2.090       .  S
Co6          N22   2.098       .  S
Co6         Cl50   2.478       .  S
N7           C45   1.331       .  A
N7           N14   1.327       .  A
N7           Co8   2.069       .  S
Co8          N11   2.085       .  S
Co8          N28   2.063       .  S
Co8          N15   2.097       .  S
Co8         Cl50   2.425       .  S
C9           N47   1.347       .  A
C9          C971   1.452       .  S
N10          N17   1.320       .  A
N10          N40   1.328       .  A
N10         Co43   2.087       .  S
N11          N29   1.317       .  A
N11          N47   1.327       .  A
N12          C41   1.352       .  A
N12          N22   1.326       .  A
H13          C38   1.081       .  S
N14          N35   1.325       .  A
N15          N33   1.321       .  A
N15          N20   1.328       .  A
C16          N20   1.352       .  A
C16          C44   1.452       .  S
C16         C961   1.441       .  S
N17          C32   1.339       .  A
N17         Co39   2.087       .  S
C18          N46   1.345       .  A
C18          C21   1.461       .  S
C18          H52   1.081       .  S
C21          N42   1.354       .  A
C21         C965   1.456       .  S
N22          N28   1.321       .  A
N23          C49   1.330       .  A
N23          N25   1.317       .  A
N23         Co39   2.027       .  S
N24          C38   1.355       .  A
N25          N53   1.325       .  A
N25         Co43   2.092       .  S
H26          C49   1.081       .  S
H27          C44   1.081       .  S
N29         Co43   2.095       .  S
N30          N42   1.330       .  A
N30          N46   1.322       .  A
N30         Co39   2.124       .  S
C31          N35   1.350       .  A
C31          C45   1.438       .  S
C31         C968   1.417       .  S
C32          C51   1.450       .  S
C32          H36   1.079       .  S
N33          C44   1.340       .  A
N33         Co43   2.084       .  S
C37          N53   1.349       .  A
C37          C49   1.436       .  S
C37         C970   1.415       .  S
Co39        Cl50   2.417       .  S
N40          C51   1.351       .  A
C41         C963   1.433       .  S
Co43        Cl50   2.471       .  S
C51         C974   1.439       .  S
C54          N72   1.345       .  A
C54          C91   1.460       .  S
C54         C955   1.443       .  S
N55          N72   1.325       .  A
N55          N77   1.315       .  A
N55         Co92   2.074       .  S
C56          N81   1.330       .  A
C56          C94   1.437       .  S
C56         H101   1.082       .  S
H57          C98   1.079       .  S
C58          N82   1.356       .  A
C58          C62   1.483       .  S
C58          H87   1.081       .  S
Co59         N77   2.083       .  S
Co59         N67   2.081       .  S
Co59         N99   2.078       .  S
Co59         N75   2.086       .  S
Co59       Cl103   2.476       .  S
N60          C98   1.337       .  A
N60          N67   1.318       .  A
N60         Co61   2.079       .  S
Co61         N64   2.023       .  S
Co61         N81   2.027       .  S
Co61         N68   2.107       .  S
Co61       Cl103   2.406       .  S
C62         N100   1.329       .  A
C62         C959   1.438       .  S
N63          N70   1.328       .  A
N63          N93   1.324   1_565  A
N63         Co96   2.087       .  S
N64          N82   1.314       .  A
N64         N100   1.311       .  A
N65          C94   1.349       .  A
N65          N75   1.325       .  A
H66          C91   1.082       .  S
N67          N88   1.327       .  A
N68          N86   1.325       .  A
N68          N73   1.325       .  A
C69          N73   1.347       .  A
C69          C97   1.458       .  S
C69         C953   1.438       .  S
N70          C85   1.331   1_565  A
N70         Co92   2.080       .  S
C71          N99   1.338       .  A
C71          C74   1.447       .  S
C71         H105   1.081       .  S
C74          N95   1.356       .  A
C74         C949   1.444       .  S
N75          N81   1.315       .  A
N76         C102   1.336       .  A
N76          N78   1.323       .  A
N76         Co92   2.047       .  S
N77          C91   1.346       .  A
N78         N106   1.328       .  A
N78         Co96   2.109       .  S
H79         C102   1.082       .  S
H80          C97   1.081       .  S
N82         Co96   2.121       .  S
N83          N95   1.331       .  A
N83          N99   1.322       .  A
N83         Co92   2.111       .  S
C84          N88   1.350       .  A
C84          C98   1.448       .  S
C84         C958   1.433       .  S
C85         C104   1.439       .  S
C85          H89   1.082       .  S
N86          C97   1.342       .  A
N86         Co96   2.085       .  S
C90         N106   1.353       .  A
C90         C102   1.443       .  S
C90         C951   1.443       .  S
Co92       Cl103   2.413       .  S
N93         C104   1.348       .  A
C94         C967   1.416       .  S
Co96       Cl103   2.478       .  S
C104        C969   1.415       .  S
C107        N125   1.356       .  A
C107        C144   1.457       .  S
C107        C966   1.456       .  S
N108        N125   1.331       .  A
N108        N130   1.324       .  A
N108       Co145   2.111       .  S
C109        N134   1.340       .  A
C109        C147   1.457       .  S
C109        H154   1.082       .  S
H110        C151   1.081       .  S
C111        N135   1.350       .  A
C111        C115   1.467       .  S
C111        H140   1.081       .  S
Co112       N130   2.104       .  S
Co112       N120   2.039       .  S
Co112       N152   2.027       .  S
Co112       N128   2.084       .  S
Co112      Cl156   2.405       .  S
N113        C151   1.346       .  A
N113        N120   1.316       .  A
N113       Co114   2.089       .  S
Co114       N117   2.057       .  S
Co114       N134   2.072       .  S
Co114       N121   2.097       .  S
Co114      Cl156   2.484       .  S
C115        N153   1.338       .  A
C115        C937   1.437       .  S
N116        N123   1.321       .  A
N116        N146   1.319       .  A
N116       Co149   2.049       .  S
N117        N135   1.321       .  A
N117        N153   1.319       .  A
N118        C147   1.345       .  A
N118        N128   1.323       .  A
H119        C144   1.080       .  S
N120        N141   1.317       .  A
N121        N139   1.317       .  A
N121        N126   1.331       .  A
C122        N126   1.355       .  A
C122        C150   1.447       .  S
C122        C956   1.442       .  S
N123        C138   1.349       .  A
N123       Co145   2.116       .  S
C124        N152   1.325       .  A
C124        C127   1.434       .  S
C124        H158   1.082       .  S
C127        N148   1.364       .  A
C127        C947   1.440       .  S
N128        N134   1.318       .  A
N129        C155   1.348   1_545  A
N129        N131   1.327       .  A
N129       Co145   2.119       .  S
N130        C144   1.343       .  A
N131        N159   1.325   1_545  A
N131       Co149   2.101       .  S
H132        C155   1.082       .  S
H133        C150   1.081   1_565  S
N135       Co149   2.115       .  S
N136        N148   1.334       .  A
N136        N152   1.316       .  A
N136       Co145   2.127       .  S
C137        N141   1.337       .  A
C137        C151   1.457       .  S
C137        C944   1.420       .  S
C138        C157   1.471       .  S
C138        H142   1.082       .  S
N139        C150   1.337       .  A
N139       Co149   2.068       .  S
C143        N159   1.346       .  A
C143        C155   1.467       .  S
C143        C942   1.450       .  S
Co145      Cl156   2.492       .  S
N146        C157   1.338       .  A
C147        C946   1.432       .  S
Co149      Cl156   2.414       .  S
C157        C939   1.440       .  S
C160        N178   1.356       .  A
C160        C197   1.453       .  S
C160        C972   1.452       .  S
N161        N178   1.331       .  A
N161        N183   1.324       .  A
N161       Co198   2.113       .  S
C162        N187   1.345       .  A
C162        C200   1.460       .  S
C162        H207   1.082       .  S
H163        C204   1.080       .  S
C164        N188   1.352       .  A
C164        C168   1.469       .  S
C164        H193   1.082       .  S
Co165       N183   2.100       .  S
Co165       N173   2.045       .  S
Co165       N205   2.031       .  S
Co165       N181   2.087       .  S
Co165      Cl209   2.416       .  S
N166        C204   1.345       .  A
N166        N173   1.316       .  A
N166       Co167   2.086       .  S
Co167       N170   2.068       .  S
Co167       N187   2.085       .  S
Co167       N174   2.081       .  S
Co167      Cl209   2.475       .  S
C168        N206   1.339       .  A
C168        C931   1.444       .  S
N169        N176   1.320       .  A
N169        N199   1.321       .  A
N169       Co202   2.061       .  S
N170        N188   1.322       .  A
N170        N206   1.321       .  A
N171        C200   1.346       .  A
N171        N181   1.324       .  A
H172        C197   1.081       .  S
N173        N194   1.319       .  A
N174        N192   1.317       .  A
N174        N179   1.327       .  A
C175        N179   1.349       .  A
C175        C203   1.451       .  S
C175        C954   1.438       .  S
N176        C191   1.347       .  A
N176       Co198   2.103       .  S
C177        N205   1.325       .  A
C177        C180   1.437       .  S
C177        H211   1.081       .  S
C180        N201   1.361       .  A
C180        C933   1.430       .  S
N181        N187   1.318       .  A
N182        C208   1.348       .  A
N182        N184   1.326       .  A
N182       Co198   2.115       .  S
N183        C197   1.342       .  A
N184        N212   1.326       .  A
N184       Co202   2.104       .  S
H185        C208   1.081       .  S
H186        C203   1.081       .  S
N188       Co202   2.118       .  S
N189        N201   1.331       .  A
N189        N205   1.315       .  A
N189       Co198   2.113       .  S
C190        N194   1.338       .  A
C190        C204   1.454       .  S
C190        C943   1.422       .  S
C191        C210   1.466       .  S
C191        H195   1.082       .  S
N192        C203   1.340       .  A
N192       Co202   2.079       .  S
C196        N212   1.348       .  A
C196        C208   1.466       .  S
C196        C941   1.450       .  S
Co198      Cl209   2.483       .  S
N199        C210   1.341       .  A
C200        C936   1.441       .  S
Co202      Cl209   2.423       .  S
C210        C929   1.439       .  S
C213        N231   1.347       .  A
C213        C250   1.459       .  S
C213        C962   1.441       .  S
N214        N231   1.324       .  A
N214        N236   1.319       .  A
N214       Co251   2.087       .  S
C215        N240   1.353       .  A
C215        C253   1.472       .  S
C215        H260   1.081       .  S
H216        C257   1.080       .  S
C217        N241   1.345   1_554  A
C217        C221   1.461       .  S
C217        H246   1.082       .  S
Co218       N236   2.090   1_556  S
Co218       N226   2.078       .  S
Co218       N258   2.081       .  S
Co218       N234   2.082       .  S
Co218      Cl262   2.480       .  S
N219        C257   1.337       .  A
N219        N226   1.315       .  A
N219       Co220   2.060       .  S
Co220       N223   2.111       .  S
Co220       N240   2.128       .  S
Co220       N227   2.046       .  S
Co220      Cl262   2.415       .  S
C221        N259   1.348   1_554  A
C221        C923   1.442       .  S
N222        N229   1.314       .  A
N222        N252   1.330       .  A
N222       Co255   2.102   1_554  S
N223        N241   1.327       .  A
N223        N259   1.325       .  A
N224        C253   1.343       .  A
N224        N234   1.324       .  A
H225        C250   1.081       .  S
N226        N247   1.327   1_556  A
N227        N245   1.322       .  A
N227        N232   1.321       .  A
C228        N232   1.337       .  A
C228        C256   1.463       .  S
C228        C919   1.442       .  S
N229        C244   1.327       .  A
N229       Co251   2.032       .  S
C230        N258   1.345       .  A
C230        C233   1.456       .  S
C230        H264   1.081       .  S
C233        N254   1.338   1_556  A
C233        C926   1.423       .  S
N234        N240   1.323       .  A
N235        C261   1.339       .  A
N235        N237   1.325   1_554  A
N235       Co251   2.098       .  S
N236        C250   1.345       .  A
N237        N265   1.331       .  A
N237       Co255   2.113       .  S
H238        C261   1.081       .  S
H239        C256   1.082       .  S
N241       Co255   2.102       .  S
N242        N254   1.318       .  A
N242        N258   1.315   1_554  A
N242       Co251   2.046       .  S
C243        N247   1.349   1_556  A
C243        C257   1.444       .  S
C243        C927   1.430   1_556  S
C244        C263   1.441       .  S
C244        H248   1.081       .  S
N245        C256   1.347       .  A
N245       Co255   2.101       .  S
C249        N265   1.356       .  A
C249        C261   1.450   1_556  S
C249        C921   1.447       .  S
Co251      Cl262   2.407   1_554  S
N252        C263   1.357       .  A
C253        C917   1.456       .  S
Co255      Cl262   2.480       .  S
C263        C938   1.434       .  S
C266        N284   1.345       .  A
C266        C303   1.460       .  S
C266        C930   1.440       .  S
N267        N284   1.324       .  A
N267        N289   1.319       .  A
N267       Co304   2.085       .  S
C268        N293   1.348       .  A
C268        C306   1.466       .  S
C268        H313   1.082       .  S
H269        C310   1.081       .  S
C270        N294   1.346       .  A
C270        C274   1.464       .  S
C270        H299   1.082       .  S
Co271       N289   2.085   1_556  S
Co271       N279   2.086       .  S
Co271       N311   2.089       .  S
Co271       N287   2.071       .  S
Co271      Cl315   2.486       .  S
N272        C310   1.336       .  A
N272        N279   1.315       .  A
N272       Co273   2.060       .  S
Co273       N276   2.096       .  S
Co273       N293   2.113       .  S
Co273       N280   2.054       .  S
Co273      Cl315   2.413       .  S
C274        N312   1.345   1_554  A
C274        C924   1.442       .  S
N275        N282   1.315       .  A
N275        N305   1.333       .  A
N275       Co308   2.121       .  S
N276        N294   1.327   1_556  A
N276        N312   1.323       .  A
N277        C306   1.342       .  A
N277        N287   1.322       .  A
H278        C303   1.081       .  S
N279        N300   1.328   1_556  A
N280        N298   1.325       .  A
N280        N285   1.322       .  A
C281        N285   1.338       .  A
C281        C309   1.470       .  S
C281        C909   1.450       .  S
N282        C297   1.324       .  A
N282       Co304   2.024       .  S
C283        N311   1.346       .  A
C283        C286   1.459       .  S
C283        H317   1.081       .  S
C286        N307   1.337   1_556  A
C286        C925   1.422       .  S
N287        N293   1.322       .  A
N288        C314   1.343       .  A
N288        N290   1.326   1_554  A
N288       Co304   2.105       .  S
N289        C303   1.344       .  A
N290        N318   1.333       .  A
N290       Co308   2.128   1_556  S
H291        C314   1.080       .  S
H292        C309   1.082       .  S
N294       Co308   2.109       .  S
N295        N307   1.317       .  A
N295        N311   1.316   1_554  A
N295       Co304   2.038       .  S
C296        N300   1.353   1_556  A
C296        C310   1.445       .  S
C296        C914   1.435       .  S
C297        C316   1.435       .  S
C297        H301   1.082       .  S
N298        C309   1.350       .  A
N298       Co308   2.121   1_556  S
C302        N318   1.360       .  A
C302        C314   1.456   1_556  S
C302        C916   1.462       .  S
Co304      Cl315   2.412   1_554  S
N305        C316   1.362       .  A
C306        C911   1.440       .  S
Co308      Cl315   2.487   1_554  S
C316        C950   1.437       .  S
C319        N337   1.340       .  A
C319        C356   1.465       .  S
C319        C940   1.441   1_565  S
N320        N337   1.322       .  A
N320        N342   1.319       .  A
N320       Co357   2.081   1_455  S
C321        N346   1.351       .  A
C321        C359   1.468       .  S
C321        H366   1.081       .  S
H322        C363   1.080       .  S
C323        N347   1.348   1_554  A
C323        C327   1.466   1_655  S
C323        H352   1.082       .  S
Co324       N342   2.092   1_556  S
Co324       N332   2.105   1_565  S
Co324       N364   2.107       .  S
Co324       N340   2.071       .  S
Co324      Cl368   2.476       .  S
N325        C363   1.340       .  A
N325        N332   1.317       .  A
N325       Co326   2.072       .  S
Co326       N329   2.103       .  S
Co326       N346   2.119   1_545  S
Co326       N333   2.051   1_455  S
Co326      Cl368   2.420   1_545  S
C327        N365   1.347   1_554  A
C327        C907   1.449       .  S
N328        N335   1.313   1_545  A
N328        N358   1.333       .  A
N328       Co361   2.117       .  S
N329        N347   1.327   1_455  A
N329        N365   1.326       .  A
N330        C359   1.340       .  A
N330        N340   1.322       .  A
H331        C356   1.081       .  S
N332        N353   1.331   1_556  A
N333        N351   1.320       .  A
N333        N338   1.318       .  A
C334        N338   1.338       .  A
C334        C362   1.466       .  S
C334        C902   1.430       .  S
N335        C350   1.322       .  A
N335       Co357   2.027       .  S
C336        N364   1.349       .  A
C336        C339   1.461       .  S
C336        H370   1.081       .  S
C339        N360   1.337   1_456  A
C339        C905   1.429       .  S
N340        N346   1.322       .  A
N341        C367   1.345       .  A
N341        N343   1.323       .  A
N341       Co357   2.110       .  S
N342        C356   1.347       .  A
N343        N371   1.332   1_554  A
N343       Co361   2.116   1_565  S
H344        C367   1.081       .  S
H345        C362   1.082       .  S
N347       Co361   2.118   1_556  S
N348        N360   1.318   1_455  A
N348        N364   1.317   1_554  A
N348       Co357   2.036   1_455  S
C349        N353   1.356   1_556  A
C349        C363   1.449       .  S
C349        C922   1.448       .  S
C350        C369   1.432   1_565  S
C350        H354   1.082       .  S
N351        C362   1.345       .  A
N351       Co361   2.100   1_556  S
C355        N371   1.357       .  A
C355        C367   1.459   1_556  S
C355        C915   1.462       .  S
Co357      Cl368   2.413   1_654  S
N358        C369   1.365       .  A
C359        C904   1.445       .  S
Co361      Cl368   2.488   1_644  S
C369        C952   1.432       .  S
C372        N390   1.344       .  A
C372        C409   1.459       .  S
C372        C964   1.433       .  S
N373        N390   1.322       .  A
N373        N395   1.317       .  A
N373       Co410   2.069   1_655  S
C374        N399   1.345       .  A
C374        C412   1.459       .  S
C374        H419   1.081       .  S
H375        C416   1.081       .  S
C376        N400   1.350       .  A
C376        C380   1.470       .  S
C376        H405   1.082       .  S
Co377       N395   2.084   1_556  S
Co377       N385   2.088       .  S
Co377       N417   2.096       .  S
Co377       N393   2.070       .  S
Co377      Cl421   2.477   1_655  S
N378        C416   1.335       .  A
N378        N385   1.317       .  A
N378       Co379   2.059       .  S
Co379       N382   2.090   1_655  S
Co379       N399   2.097       .  S
Co379       N386   2.051   1_655  S
Co379      Cl421   2.414   1_655  S
C380        N418   1.343   1_454  A
C380        C908   1.448       .  S
N381        N388   1.317       .  A
N381        N411   1.332       .  A
N381       Co414   2.117       .  S
N382        N400   1.325   1_556  A
N382        N418   1.323   1_455  A
N383        C412   1.343       .  A
N383        N393   1.321       .  A
H384        C409   1.081       .  S
N385        N406   1.327   1_556  A
N386        N404   1.320       .  A
N386        N391   1.319       .  A
C387        N391   1.339       .  A
C387        C415   1.469       .  S
C387        C900   1.438       .  S
N388        C403   1.326       .  A
N388       Co410   2.035       .  S
C389        N417   1.349       .  A
C389        C392   1.463       .  S
C389        H423   1.081       .  S
C392        N413   1.337   1_656  A
C392        C906   1.428       .  S
N393        N399   1.321       .  A
N394        C420   1.337       .  A
N394        N396   1.323       .  A
N394       Co410   2.082       .  S
N395        C409   1.342       .  A
N396        N424   1.327   1_554  A
N396       Co414   2.099       .  S
H397        C420   1.081       .  S
H398        C415   1.082       .  S
N400       Co414   2.118       .  S
N401        N413   1.317   1_655  A
N401        N417   1.316   1_554  A
N401       Co410   2.043   1_655  S
C402        N406   1.351       .  A
C402        C416   1.444   1_554  S
C402        C928   1.429       .  S
C403        C422   1.438       .  S
C403        H407   1.082       .  S
N404        C415   1.348       .  A
N404       Co414   2.110   1_556  S
C408        N424   1.353       .  A
C408        C420   1.447   1_556  S
C408        C913   1.435       .  S
Co410      Cl421   2.404   1_554  S
N411        C422   1.361       .  A
C412        C897   1.433       .  S
Co414      Cl421   2.488   1_554  S
C422        C932   1.439       .  S
C425        N443   1.328       .  A
C425        C462   1.485       .  S
C425        C918   1.445       .  S
N426        N443   1.312       .  A
N426        N448   1.314       .  A
N426       Co463   2.026       .  S
C427        N452   1.336       .  A
C427        C465   1.449       .  S
C427        H472   1.082       .  S
H428        C469   1.081       .  S
C429        N453   1.349       .  A
C429        C433   1.465       .  S
C429        H458   1.082       .  S
Co430       N448   2.126       .  S
Co430       N438   2.107       .  S
Co430       N470   2.087       .  S
Co430       N446   2.101       .  S
Co430      Cl474   2.485       .  S
N431        C469   1.331   1_545  A
N431        N438   1.329       .  A
N431       Co432   2.072       .  S
Co432       N435   2.095       .  S
Co432       N452   2.059       .  S
Co432       N439   2.108       .  S
Co432      Cl474   2.427       .  S
C433        N471   1.350       .  A
C433        C889   1.461       .  S
N434        N441   1.320       .  A
N434        N464   1.327       .  A
N434       Co467   2.091       .  S
N435        N453   1.316       .  A
N435        N471   1.330       .  A
N436        C465   1.353       .  A
N436        N446   1.327       .  A
H437        C462   1.081       .  S
N438        N459   1.326   1_545  A
N439        N457   1.322       .  A
N439        N444   1.330       .  A
C440        N444   1.355       .  A
C440        C468   1.449       .  S
C440        C887   1.445       .  S
N441        C456   1.335       .  A
N441       Co463   2.075       .  S
C442        N470   1.344       .  A
C442        C445   1.460       .  S
C442        H476   1.081       .  S
C445        N466   1.352       .  A
C445        C895   1.451       .  S
N446        N452   1.320       .  A
N447        C473   1.331       .  A
N447        N449   1.315       .  A
N447       Co463   2.024       .  S
N448        C462   1.358       .  A
N449        N477   1.325       .  A
N449       Co467   2.092       .  S
H450        C473   1.082       .  S
H451        C468   1.081       .  S
N453       Co467   2.099       .  S
N454        N466   1.328       .  A
N454        N470   1.324       .  A
N454       Co463   2.119       .  S
C455        N459   1.351       .  A
C455        C469   1.437       .  S
C455        C891   1.417       .  S
C456        C475   1.443       .  S
C456        H460   1.080       .  S
N457        C468   1.339       .  A
N457       Co467   2.084       .  S
C461        N477   1.349       .  A
C461        C473   1.437       .  S
C461        C894   1.418       .  S
Co463      Cl474   2.408       .  S
N464        C475   1.353       .  A
C465        C886   1.439       .  S
Co467      Cl474   2.472       .  S
C475        C901   1.431       .  S
C478        N496   1.327       .  A
C478        C515   1.486       .  S
C478        C910   1.438       .  S
N479        N496   1.310       .  A
N479        N501   1.314       .  A
N479       Co516   2.018       .  S
C480        N505   1.336       .  A
C480        C518   1.447       .  S
C480        H525   1.082       .  S
H481        C522   1.082       .  S
C482        N506   1.347       .  A
C482        C486   1.460       .  S
C482        H511   1.081       .  S
Co483       N501   2.129       .  S
Co483       N491   2.095       .  S
Co483       N523   2.088       .  S
Co483       N499   2.118       .  S
Co483      Cl527   2.486       .  S
N484        C522   1.333       .  A
N484        N491   1.327       .  A
N484       Co485   2.080       .  S
Co485       N488   2.077       .  S
Co485       N505   2.055       .  S
Co485       N492   2.110       .  S
Co485      Cl527   2.422       .  S
C486        N524   1.344       .  A
C486        C881   1.444       .  S
N487        N494   1.318       .  A
N487        N517   1.326       .  A
N487       Co520   2.079       .  S
N488        N506   1.316       .  A
N488        N524   1.325       .  A
N489        C518   1.357       .  A
N489        N499   1.330       .  A
H490        C515   1.081       .  S
N491        N512   1.325       .  A
N492        N510   1.321       .  A
N492        N497   1.330       .  A
C493        N497   1.356       .  A
C493        C521   1.449       .  S
C493        C879   1.445       .  S
N494        C509   1.339       .  A
N494       Co516   2.086       .  S
C495        N523   1.344       .  A
C495        C498   1.460       .  S
C495        H529   1.081       .  S
C498        N519   1.351       .  A
C498        C884   1.449       .  S
N499        N505   1.321       .  A
N500        C526   1.330       .  A
N500        N502   1.316       .  A
N500       Co516   2.025       .  S
N501        C515   1.357       .  A
N502        N530   1.325       .  A
N502       Co520   2.091       .  S
H503        C526   1.082       .  S
H504        C521   1.081       .  S
N506       Co520   2.090       .  S
N507        N519   1.328       .  A
N507        N523   1.324       .  A
N507       Co516   2.118       .  S
C508        N512   1.350       .  A
C508        C522   1.440       .  S
C508        C893   1.419       .  S
C509        C528   1.451       .  S
C509        H513   1.079       .  S
N510        C521   1.339       .  A
N510       Co520   2.078       .  S
C514        N530   1.350       .  A
C514        C526   1.436       .  S
C514        C892   1.416       .  S
Co516      Cl527   2.406       .  S
N517        C528   1.348       .  A
C518        C877   1.445       .  S
Co520      Cl527   2.472       .  S
C528        C898   1.434       .  S
C531        N549   1.327       .  A
C531        C568   1.480       .  S
C531        C920   1.428       .  S
N532        N549   1.309       .  A
N532        N554   1.315       .  A
N532       Co569   2.023       .  S
C533        N558   1.335       .  A
C533        C571   1.442       .  S
C533        H578   1.082       .  S
H534        C575   1.082       .  S
C535        N559   1.350       .  A
C535        C539   1.469       .  S
C535        H564   1.082       .  S
Co536       N554   2.117       .  S
Co536       N544   2.099       .  S
Co536       N576   2.110       .  S
Co536       N552   2.110       .  S
Co536      Cl580   2.486       .  S
N537        C575   1.337       .  A
N537        N544   1.325       .  A
N537       Co538   2.093       .  S
Co538       N541   2.059       .  S
Co538       N558   2.050       .  S
Co538       N545   2.120       .  S
Co538      Cl580   2.414       .  S
C539        N577   1.340       .  A
C539        C882   1.442       .  S
N540        N547   1.317       .  A
N540        N570   1.327       .  A
N540       Co573   2.086       .  S
N541        N559   1.317       .  A
N541        N577   1.320       .  A
N542        C571   1.354       .  A
N542        N552   1.329       .  A
H543        C568   1.081       .  S
N544        N565   1.328       .  A
N545        N563   1.321       .  A
N545        N550   1.332       .  A
C546        N550   1.357       .  A
C546        C574   1.443       .  S
C546        C871   1.440       .  S
N547        C562   1.339       .  A
N547       Co569   2.084       .  S
C548        N576   1.348       .  A
C548        C551   1.466       .  S
C548        H582   1.082       .  S
C551        N572   1.348       .  A
C551        C896   1.451       .  S
N552        N558   1.323       .  A
N553        C579   1.330       .  A
N553        N555   1.316       .  A
N553       Co569   2.031       .  S
N554        C568   1.356       .  A
N555        N583   1.329       .  A
N555       Co573   2.104       .  S
H556        C579   1.081       .  S
H557        C574   1.080       .  S
N559       Co573   2.099       .  S
N560        N572   1.326       .  A
N560        N576   1.324       .  A
N560       Co569   2.100       .  S
C561        N565   1.353       .  A
C561        C575   1.450       .  S
C561        C874   1.439       .  S
C562        C581   1.447       .  S
C562        H566   1.076       .  S
N563        C574   1.335       .  A
N563       Co573   2.063       .  S
C567        N583   1.352       .  A
C567        C579   1.438       .  S
C567        C875   1.422       .  S
Co569      Cl580   2.416       .  S
N570        C581   1.353       .  A
C571        C869   1.441       .  S
Co573      Cl580   2.475       .  S
C581        C899   1.439       .  S
C584        N602   1.332       .  A
C584        C621   1.477       .  S
C584        C903   1.436       .  S
N585        N602   1.312       .  A
N585        N607   1.316       .  A
N585       Co622   2.032       .  S
C586        N611   1.335       .  A
C586        C624   1.446       .  S
C586        H631   1.082       .  S
H587        C628   1.082       .  S
C588        N612   1.346       .  A
C588        C592   1.460       .  S
C588        H617   1.081       .  S
Co589       N607   2.113       .  S
Co589       N597   2.114       .  S
Co589       N629   2.105       .  S
Co589       N605   2.102       .  S
Co589      Cl633   2.482       .  S
N590        C628   1.339       .  A
N590        N597   1.328       .  A
N590       Co591   2.098       .  S
Co591       N594   2.090       .  S
Co591       N611   2.054       .  S
Co591       N598   2.120       .  S
Co591      Cl633   2.427       .  S
C592        N630   1.349       .  A
C592        C883   1.449       .  S
N593        N600   1.320       .  A
N593        N623   1.326       .  A
N593       Co626   2.080       .  S
N594        N612   1.317       .  A
N594        N630   1.327       .  A
N595        C624   1.354       .  A
N595        N605   1.328       .  A
H596        C621   1.081       .  S
N597        N618   1.328       .  A
N598        N616   1.322       .  A
N598        N603   1.332       .  A
C599        N603   1.357       .  A
C599        C627   1.441       .  S
C599        C865   1.443       .  S
N600        C615   1.342       .  A
N600       Co622   2.096       .  S
C601        N629   1.349       .  A
C601        C604   1.467       .  S
C601        H635   1.081       .  S
C604        N625   1.351       .  A
C604        C890   1.460       .  S
N605        N611   1.319       .  A
N606        C632   1.332   1_565  A
N606        N608   1.315       .  A
N606       Co622   2.036       .  S
N607        C621   1.353       .  A
N608        N636   1.327   1_565  A
N608       Co626   2.094       .  S
H609        C632   1.081       .  S
H610        C627   1.080   1_545  S
N612       Co626   2.088       .  S
N613        N625   1.329       .  A
N613        N629   1.324       .  A
N613       Co622   2.122       .  S
C614        N618   1.352       .  A
C614        C628   1.452       .  S
C614        C873   1.440       .  S
C615        C634   1.455       .  S
C615        H619   1.079       .  S
N616        C627   1.336       .  A
N616       Co626   2.067       .  S
C620        N636   1.349       .  A
C620        C632   1.437       .  S
C620        C876   1.423       .  S
Co622      Cl633   2.414       .  S
N623        C634   1.348       .  A
C624        C867   1.437       .  S
Co626      Cl633   2.476       .  S
C634        C912   1.441       .  S
C637        N655   1.348       .  A
C637        C674   1.453       .  S
C637        C957   1.434       .  S
N638        N655   1.326       .  A
N638        N660   1.322       .  A
N638       Co675   2.084   1_565  S
C639        N664   1.338       .  A
C639        C677   1.448       .  S
C639        H684   1.079       .  S
H640        C681   1.082       .  S
C641        N665   1.344       .  A
C641        C645   1.461       .  S
C641        H670   1.081       .  S
Co642       N660   2.087       .  S
Co642       N650   2.091       .  S
Co642       N682   2.091   1_565  S
Co642       N658   2.093       .  S
Co642      Cl686   2.468       .  S
N643        C681   1.328       .  A
N643        N650   1.315       .  A
N643       Co644   2.023       .  S
Co644       N647   2.103       .  S
Co644       N664   2.075       .  S
Co644       N651   2.031   1_565  S
Co644      Cl686   2.406       .  S
C645        N683   1.346       .  A
C645        C857   1.441       .  S
N646        N653   1.319       .  A
N646        N676   1.326       .  A
N646       Co679   2.090       .  S
N647        N665   1.323       .  A
N647        N683   1.325       .  A
N648        C677   1.353       .  A
N648        N658   1.327       .  A
H649        C674   1.081       .  S
N650        N671   1.326       .  A
N651        N669   1.315       .  A
N651        N656   1.311       .  A
C652        N656   1.331       .  A
C652        C680   1.476       .  S
C652        C866   1.435       .  S
N653        C668   1.335       .  A
N653       Co675   2.063       .  S
C654        N682   1.347       .  A
C654        C657   1.463       .  S
C654        H688   1.081       .  S
C657        N678   1.349       .  A
C657        C863   1.454       .  S
N658        N664   1.319       .  A
N659        C685   1.328       .  A
N659        N661   1.326       .  A
N659       Co675   2.057       .  S
N660        C674   1.339       .  A
N661        N689   1.325       .  A
N661       Co679   2.100       .  S
H662        C685   1.082       .  S
H663        C680   1.081       .  S
N665       Co679   2.087   1_565  S
N666        N678   1.328       .  A
N666        N682   1.317       .  A
N666       Co675   2.091       .  S
C667        N671   1.351       .  A
C667        C681   1.433       .  S
C667        C859   1.415       .  S
C668        C687   1.449       .  S
C668        H672   1.082       .  S
N669        C680   1.353       .  A
N669       Co679   2.107       .  S
C673        N689   1.351       .  A
C673        C685   1.434       .  S
C673        C861   1.413       .  S
Co675      Cl686   2.424   1_545  S
N676        C687   1.351       .  A
C677        C885   1.438   1_565  S
Co679      Cl686   2.480   1_545  S
C687        C945   1.432       .  S
C690        N708   1.351       .  A
C690        C727   1.453       .  S
C690        C973   1.439       .  S
N691        N708   1.327       .  A
N691        N713   1.323       .  A
N691       Co728   2.094       .  S
C692        N717   1.339       .  A
C692        C730   1.446       .  S
C692        H737   1.077       .  S
H693        C734   1.082       .  S
C694        N718   1.350       .  A
C694        C698   1.468       .  S
C694        H723   1.081       .  S
Co695       N713   2.091       .  S
Co695       N703   2.095       .  S
Co695       N735   2.091       .  S
Co695       N711   2.101       .  S
Co695      Cl739   2.467       .  S
N696        C734   1.328       .  A
N696        N703   1.316       .  A
N696       Co697   2.017       .  S
Co697       N700   2.111       .  S
Co697       N717   2.082       .  S
Co697       N704   2.020       .  S
Co697      Cl739   2.415       .  S
C698        N736   1.349       .  A
C698        C854   1.458       .  S
N699        N706   1.322       .  A
N699        N729   1.326       .  A
N699       Co732   2.097       .  S
N700        N718   1.324       .  A
N700        N736   1.328       .  A
N701        C730   1.356       .  A
N701        N711   1.329       .  A
H702        C727   1.081       .  S
N703        N724   1.326       .  A
N704        N722   1.313       .  A
N704        N709   1.309       .  A
C705        N709   1.329       .  A
C705        C733   1.480       .  S
C705        C870   1.428       .  S
N706        C721   1.337       .  A
N706       Co728   2.057       .  S
C707        N735   1.348       .  A
C707        C710   1.465       .  S
C707        H741   1.081       .  S
C710        N731   1.343       .  A
C710        C856   1.445       .  S
N711        N717   1.319       .  A
N712        C738   1.329       .  A
N712        N714   1.326       .  A
N712       Co728   2.059       .  S
N713        C727   1.340       .  A
N714        N742   1.326       .  A
N714       Co732   2.100       .  S
H715        C738   1.082       .  S
H716        C733   1.081       .  S
N718       Co732   2.113       .  S
N719        N731   1.324       .  A
N719        N735   1.316       .  A
N719       Co728   2.071       .  S
C720        N724   1.351       .  A
C720        C734   1.432       .  S
C720        C862   1.413       .  S
C721        C740   1.445       .  S
C721        H725   1.082       .  S
N722        C733   1.354       .  A
N722       Co732   2.111       .  S
C726        N742   1.352       .  A
C726        C738   1.435       .  S
C726        C860   1.415       .  S
Co728      Cl739   2.420       .  S
N729        C740   1.351       .  A
C730        C878   1.445       .  S
Co732      Cl739   2.481       .  S
C740        C934   1.438       .  S
C743        N761   1.357       .  A
C743        C780   1.448       .  S
C743        C948   1.447       .  S
N744        N761   1.331       .  A
N744        N766   1.323       .  A
N744       Co781   2.117       .  S
C745        N770   1.342       .  A
C745        C783   1.455       .  S
C745        H790   1.079       .  S
H746        C787   1.082       .  S
C747        N771   1.347       .  A
C747        C751   1.465       .  S
C747        H776   1.081       .  S
Co748       N766   2.082       .  S
Co748       N756   2.088       .  S
Co748       N788   2.093       .  S
Co748       N764   2.082       .  S
Co748      Cl792   2.478       .  S
N749        C787   1.332   1_455  A
N749        N756   1.315       .  A
N749       Co750   2.029   1_455  S
Co750       N753   2.123       .  S
Co750       N770   2.098   1_655  S
Co750       N757   2.024       .  S
Co750      Cl792   2.415   1_655  S
C751        N789   1.351       .  A
C751        C864   1.454       .  S
N752        N759   1.323       .  A
N752        N782   1.329       .  A
N752       Co785   2.106       .  S
N753        N771   1.326       .  A
N753        N789   1.328       .  A
N754        C783   1.348       .  A
N754        N764   1.327       .  A
H755        C780   1.081       .  S
N756        N777   1.325       .  A
N757        N775   1.313       .  A
N757        N762   1.312       .  A
C758        N762   1.331       .  A
C758        C786   1.477       .  S
C758        C888   1.436       .  S
N759        C774   1.339       .  A
N759       Co781   2.057   1_655  S
C760        N788   1.350       .  A
C760        C763   1.466       .  S
C760        H794   1.081       .  S
C763        N784   1.348       .  A
C763        C853   1.458       .  S
N764        N770   1.321       .  A
N765        C791   1.332       .  A
N765        N767   1.329   1_455  A
N765       Co781   2.079       .  S
N766        C780   1.339       .  A
N767        N795   1.324       .  A
N767       Co785   2.095       .  S
H768        C791   1.082       .  S
H769        C786   1.081       .  S
N771       Co785   2.104       .  S
N772        N784   1.328       .  A
N772        N788   1.314       .  A
N772       Co781   2.086       .  S
C773        N777   1.349       .  A
C773        C787   1.437   1_455  S
C773        C851   1.418       .  S
C774        C793   1.445       .  S
C774        H778   1.082   1_655  S
N775        C786   1.355       .  A
N775       Co785   2.111       .  S
C779        N795   1.348   1_455  A
C779        C791   1.439       .  S
C779        C849   1.415       .  S
Co781      Cl792   2.422       .  S
N782        C793   1.353       .  A
C783        C872   1.442       .  S
Co785      Cl792   2.477   1_655  S
C793        C975   1.447       .  S
C796        N814   1.352       .  A
C796        C833   1.453       .  S
C796        C935   1.442       .  S
N797        N814   1.328       .  A
N797        N819   1.323       .  A
N797       Co834   2.102       .  S
C798        N823   1.338       .  A
C798        C836   1.447       .  S
C798        H843   1.080       .  S
H799        C840   1.082       .  S
C800        N824   1.348       .  A
C800        C804   1.467       .  S
C800        H829   1.081       .  S
Co801       N819   2.089       .  S
Co801       N809   2.082       .  S
Co801       N841   2.080       .  S
Co801       N817   2.095       .  S
Co801      Cl845   2.472       .  S
N802        C840   1.330   1_455  A
N802        N809   1.315       .  A
N802       Co803   2.029   1_455  S
Co803       N806   2.096       .  S
Co803       N823   2.076   1_655  S
Co803       N810   2.027       .  S
Co803      Cl845   2.411   1_655  S
C804        N842   1.344       .  A
C804        C855   1.445       .  S
N805        N812   1.322       .  A
N805        N835   1.330       .  A
N805       Co838   2.111       .  S
N806        N824   1.326       .  A
N806        N842   1.324       .  A
N807        C836   1.353       .  A
N807        N817   1.327       .  A
H808        C833   1.081       .  S
N809        N830   1.325       .  A
N810        N828   1.315       .  A
N810        N815   1.312       .  A
C811        N815   1.331       .  A
C811        C839   1.477       .  S
C811        C880   1.436       .  S
N812        C827   1.338       .  A
N812       Co834   2.056   1_655  S
C813        N841   1.345       .  A
C813        C816   1.460       .  S
C813        H847   1.081       .  S
C816        N837   1.344       .  A
C816        C858   1.441       .  S
N817        N823   1.319       .  A
N818        C844   1.332       .  A
N818        N820   1.327   1_455  A
N818       Co834   2.073       .  S
N819        C833   1.340       .  A
N820        N848   1.325       .  A
N820       Co838   2.096       .  S
H821        C844   1.082       .  S
H822        C839   1.081       .  S
N824       Co838   2.109       .  S
N825        N837   1.324       .  A
N825        N841   1.315       .  A
N825       Co834   2.072       .  S
C826        N830   1.349       .  A
C826        C840   1.437   1_455  S
C826        C850   1.415       .  S
C827        C846   1.445       .  S
C827        H831   1.082   1_655  S
N828        C839   1.355       .  A
N828       Co838   2.114       .  S
C832        N848   1.350   1_455  A
C832        C844   1.440       .  S
C832        C852   1.418       .  S
Co834      Cl845   2.420       .  S
N835        C846   1.355       .  A
C836        C868   1.437       .  S
Co838      Cl845   2.483   1_655  S
C846        C960   1.449       .  S
C849        C850   1.194       .  T
C851        C852   1.196   1_545  T
C853        C854   1.219       .  T
C855        C856   1.211       .  T
C857        C858   1.209       .  T
C859        C860   1.194       .  T
C861        C862   1.193       .  T
C863        C864   1.217       .  T
C865        C866   1.210   1_565  T
C867        C868   1.206       .  T
C869        C870   1.208       .  T
C871        C872   1.209       .  T
C873        C874   1.208       .  T
C875        C876   1.198       .  T
C877        C878   1.211       .  T
C879        C880   1.210       .  T
C881        C882   1.210   1_655  T
C883        C884   1.213       .  T
C885        C886   1.207       .  T
C887        C888   1.210       .  T
C889        C890   1.220   1_645  T
C891        C892   1.195       .  T
C893        C894   1.196       .  T
C895        C896   1.215       .  T
C897        C898   1.204       .  T
C899        C900   1.208       .  T
C901        C902   1.203       .  T
C903        C904   1.211       .  T
C905        C906   1.202   1_455  T
C907        C908   1.214       .  T
C909        C910   1.213       .  T
C911        C912   1.209       .  T
C913        C914   1.205       .  T
C915        C916   1.221       .  T
C917        C918   1.217       .  T
C919        C920   1.208       .  T
C921        C922   1.213       .  T
C923        C924   1.209       .  T
C925        C926   1.198   1_565  T
C927        C928   1.202       .  T
C929        C930   1.208       .  T
C931        C932   1.211       .  T
C933        C934   1.206       .  T
C935        C936   1.209       .  T
C937        C938   1.207       .  T
C939        C940   1.209       .  T
C941        C942   1.214       .  T
C943        C944   1.197       .  T
C945        C946   1.204       .  T
C947        C948   1.212       .  T
C949        C950   1.210       .  T
C951        C952   1.209   1_565  T
C953        C954   1.207   1_655  T
C955        C956   1.210   1_565  T
C957        C958   1.204       .  T
C959        C960   1.212       .  T
C961        C962   1.209       .  T
C963        C964   1.204       .  T
C965        C966   1.218   1_655  T
C967        C968   1.195       .  T
C969        C970   1.194       .  T
C971        C972   1.216       .  T
C973        C974   1.208       .  T
C975        C976   1.211       .  T
