geometry optimzed in LAMMPS
_audit_creation_date              2020-11-30 
_audit_creation_method            'lammps2cif' 
_symmetry_space_group_name_H-M    'P1' 
_symmetry_Int_Tables_number       1 
_symmetry_cell_setting            triclinic 
loop_ 
_symmetry_equiv_pos_as_xyz 
  x,y,z 
_cell_length_a                    41.99898388169983 
_cell_length_b                    45.05559027918436 
_cell_length_c                    37.40007524224091 
_cell_angle_alpha                 91.01893670237797 
_cell_angle_beta                  89.43251168653093 
_cell_angle_gamma                 89.9981340545654 
loop_ 
_atom_site_label 
_atom_site_type_symbol 
_atom_site_fract_x 
_atom_site_fract_y 
_atom_site_fract_z 
_atom_site_charge 
N1          N  0.43097451  0.21168613  0.31504414    -0.08530
N2          N  0.45443078  0.21182899  0.33905628    -0.60650
N3          N  0.44123166  0.15120312  0.27428630    -0.08210
N4          N  0.46040948  0.12788148  0.27645315    -0.62770
N5          N  0.45507088  0.17215901  0.25559740    -0.07800
N6          N  0.48433386  0.16386281  0.24586989    -0.60620
N7          N  0.40686695  0.19738734  0.32878431    -0.07480
N8          N  0.41090835  0.19198084  0.36254191    -0.63130
C9          C  0.44056461  0.20006283  0.36905974     0.93650
C10         C  0.48716579  0.13575630  0.25832069     0.93430
N11         N  0.34972726  0.11994415  0.25550108    -0.08710
N12         N  0.34727304  0.09402496  0.23855873    -0.61220
N13         N  0.34695860  0.16573071  0.32778994    -0.06830
N14         N  0.34392814  0.17879134  0.35954699    -0.62480
N15         N  0.32026676  0.16769172  0.31001873    -0.08740
N16         N  0.29871398  0.18244977  0.32925747    -0.61490
N17         N  0.37688698  0.12101897  0.27230436    -0.06470
N18         N  0.39377598  0.09697639  0.26678111    -0.62560
Mn19       Mn  0.39299460  0.15832019  0.30093283     1.18440
C20         C  0.37544966  0.08041065  0.24540467     0.95730
C21         C  0.31390327  0.18912878  0.36007036     0.96400
N22         N  0.42791740  0.21842950  0.19385536    -0.08760
N23         N  0.44982318  0.23037006  0.17262725    -0.65070
N24         N  0.37222368  0.25651841  0.23487227    -0.07560
N25         N  0.35863416  0.28275274  0.23691189    -0.65740
N26         N  0.39907423  0.25631064  0.25321166    -0.08270
N27         N  0.40443441  0.28312743  0.26689253    -0.65330
N28         N  0.40052645  0.21711273  0.17664950    -0.07160
N29         N  0.40360313  0.22737821  0.14408731    -0.66020
Mn30       Mn  0.42972433  0.21547815  0.25411977     1.10660
C31         C  0.43413596  0.23559556  0.14172615     0.96960
C32         C  0.37849354  0.29899003  0.25723372     0.97030
N33         N  0.29376842  0.20355229  0.24689971    -0.08270
N34         N  0.26569600  0.21240575  0.25993450    -0.63650
N35         N  0.33765717  0.17757161  0.17459504    -0.07590
N36         N  0.33967917  0.16816340  0.14075492    -0.60380
N37         N  0.32437155  0.15698622  0.19424762    -0.08900
N38         N  0.31704573  0.13347549  0.17477828    -0.63210
N39         N  0.30681438  0.22478593  0.22827681    -0.07890
N40         N  0.28810796  0.24847090  0.22811938    -0.60400
Mn41       Mn  0.32068741  0.16114017  0.25205236     1.20190
Mn42       Mn  0.35412773  0.21914207  0.20254003     1.10090
Cl43       Cl  0.37483761  0.18859320  0.25136624    -0.88370
C44         C  0.26242636  0.24061707  0.24794498     0.93960
C45         C  0.32695851  0.14036940  0.14164537     0.93760
N46         N  0.40515719  0.01017032  0.25889231    -0.08530
N47         N  0.40829868  0.03520493  0.24126938    -0.60650
N48         N  0.40484377  0.46769692  0.32960562    -0.08210
N49         N  0.40602160  0.45906233  0.36293167    -0.62770
N50         N  0.43199900  0.46244963  0.31304160    -0.07800
N51         N  0.45187317  0.44880713  0.33472119    -0.60620
N52         N  0.37704840  0.00966214  0.27423799    -0.07480
N53         N  0.36029868  0.03330734  0.26724252    -0.63130
C54         C  0.37969693  0.04890862  0.24620380     0.93650
C55         C  0.43523782  0.44747837  0.36600973     0.93430
N56         N  0.32317831  0.41785599  0.31159049    -0.08710
N57         N  0.29896375  0.41666247  0.33484071    -0.61220
N58         N  0.31331565  0.47827592  0.27307027    -0.06830
N59         N  0.29484988  0.00214406  0.27331475    -0.62480
N60         N  0.30077687  0.45715653  0.25291274    -0.08740
N61         N  0.27332444  0.46611202  0.23952398    -0.61490
N62         N  0.34631407  0.43283651  0.32656706    -0.06470
N63         N  0.34095709  0.43768941  0.36047718    -0.62560
Mn64       Mn  0.36007661  0.47261945  0.30120925     1.18440
C65         C  0.31123690  0.42892493  0.36545538     0.95730
C66         C  0.26998998  0.99441489  0.25231486     0.96400
N67         N  0.45935700  0.42495469  0.24756611    -0.08760
N68         N  0.48681102  0.41463564  0.25977208    -0.65070
N69         N  0.41579267  0.45297677  0.17708743    -0.07560
N70         N  0.41006751  0.46404874  0.14517194    -0.65740
N71         N  0.42896647  0.47347765  0.19739064    -0.08270
N72         N  0.43190928  0.49854217  0.18003610    -0.65330
N73         N  0.44554160  0.40430653  0.22815972    -0.07160
N74         N  0.46239941  0.37958663  0.22729818    -0.66020
Mn75       Mn  0.43347740  0.46833879  0.25470855     1.10660
C76         C  0.48790590  0.38590033  0.24746411     0.96960
C77         C  0.42006636  0.49288422  0.14721326     0.97030
N78         N  0.32824745  0.40994752  0.19144412    -0.08270
N79         N  0.30804931  0.39531536  0.17057402    -0.63650
N80         N  0.38234432  0.37233348  0.23196496    -0.07590
N81         N  0.39664966  0.34653917  0.23510825    -0.60380
N82         N  0.35539750  0.37296500  0.25048709    -0.08900
N83         N  0.35058192  0.34704093  0.26563172    -0.63210
N84         N  0.35585457  0.41213485  0.17454392    -0.07890
N85         N  0.35465991  0.39993402  0.14236866    -0.60400
Mn86       Mn  0.32542021  0.41373120  0.25133353     1.20190
Mn87       Mn  0.40029965  0.41042543  0.20182130     1.10090
Cl88       Cl  0.37970225  0.44124015  0.25193856    -0.88370
C89         C  0.32501596  0.38947319  0.14013386     0.93960
C90         C  0.37699469  0.33116019  0.25655942     0.93760
N91         N  0.06353001  0.10334525  0.27266940    -0.08530
N92         N  0.04399597  0.12641520  0.27568410    -0.60650
N93         N  0.07426600  0.04306449  0.31189929    -0.08210
N94         N  0.05070748  0.04104696  0.33591955    -0.62770
N95         N  0.09718449  0.05869284  0.32627019    -0.07800
N96         N  0.09234277  0.06365967  0.36027494    -0.60620
N97         N  0.05009679  0.08186778  0.25379641    -0.07480
N98         N  0.02070666  0.08964834  0.24482932    -0.63130
C99         C  0.01741621  0.11791060  0.25798663     0.93650
C100        C  0.06321691  0.05373111  0.36622907     0.93430
N101        N  0.13339041  0.49729143  0.23220746    -0.08710
N102        N  0.14720254  0.47130558  0.23560697    -0.61220
N103        N  0.07803995  0.03371068  0.19131076    -0.06830
N104        N  0.05710702  0.01931175  0.17097176    -0.62480
N105        N  0.10559806  0.03492007  0.17396081    -0.08740
N106        N  0.10352626  0.02220113  0.14207331    -0.61490
N107        N  0.10634497  0.49834284  0.25066508    -0.06470
N108        N  0.10108297  0.47265960  0.26607662    -0.62560
Mn109      Mn  0.07581719  0.03857999  0.25144863     1.18440
C110        C  0.12716955  0.45642019  0.25717935     0.95730
C111        C  0.07346314  0.01250544  0.14034612     0.96400
N112        N  0.15608853  0.09241255  0.32787367    -0.08760
N113        N  0.15714407  0.08304496  0.36095769    -0.65070
N114        N  0.15578584  0.13486795  0.25680333    -0.07560
N115        N  0.15932042  0.16032730  0.24020581    -0.65740
N116        N  0.12778428  0.13429775  0.27230351    -0.08270
N117        N  0.11135671  0.15829410  0.26640551    -0.65330
N118        N  0.18304792  0.08683378  0.31102008    -0.07160
N119        N  0.20250851  0.07209247  0.33230631    -0.66020
Mn120      Mn  0.11101733  0.09769283  0.29978590     1.10660
C121        C  0.18591285  0.07044890  0.36369264     0.96960
C122        C  0.13095481  0.17419926  0.24599316     0.97030
N123        N  0.16642098  0.07698094  0.17406649    -0.08270
N124        N  0.16196374  0.08721572  0.14136265    -0.63650
N125        N  0.21084919  0.05105895  0.24515591    -0.07590
N126        N  0.23865468  0.04241366  0.25803980    -0.60380
N127        N  0.19837130  0.02974391  0.22557510    -0.08900
N128        N  0.21722272  0.50615112  0.22466750    -0.63210
N129        N  0.17901657  0.09797007  0.19425839    -0.07890
N130        N  0.18266845  0.12256953  0.17607712    -0.60400
Mn131      Mn  0.15132629  0.03454023  0.20028738     1.20190
Mn132      Mn  0.18398810  0.09330823  0.25224765     1.10090
Cl133      Cl  0.13036155  0.06599908  0.25041817    -0.88370
C134        C  0.17170126  0.11617140  0.14297305     0.93960
C135        C  0.24237043  0.01423033  0.24496746     0.93760
N136        N  0.19077045  0.27726495  0.27634287    -0.08530
N137        N  0.20915492  0.25330958  0.27616558    -0.60650
N138        N  0.17956119  0.33766979  0.31668978    -0.08210
N139        N  0.20260205  0.33937756  0.34103340    -0.62770
N140        N  0.15575357  0.32303255  0.33049729    -0.07800
N141        N  0.15955510  0.31861551  0.36449494    -0.60620
N142        N  0.20390518  0.29813108  0.25680069    -0.07480
N143        N  0.23171044  0.28888872  0.24354304    -0.63130
C144        C  0.23464417  0.26069157  0.25566241     0.93650
C145        C  0.18880161  0.32795150  0.37118131     0.93430
N146        N  0.12203760  0.38185080  0.23613873    -0.08710
N147        N  0.10859095  0.40816744  0.23727577    -0.61220
N148        N  0.17825174  0.34765281  0.19664178    -0.06830
N149        N  0.19813692  0.36556813  0.17984921    -0.62480
N150        N  0.15178098  0.34563754  0.17791275    -0.08740
N151        N  0.15367774  0.36163427  0.14866517    -0.61490
N152        N  0.14820348  0.38177912  0.25559891    -0.06470
N153        N  0.15340665  0.40856720  0.26920695    -0.62560
Mn154      Mn  0.17893568  0.34173313  0.25620533     1.18440
C155        C  0.12796881  0.42440033  0.25831204     0.95730
C156        C  0.18214387  0.37481555  0.15065359     0.96400
N157        N  0.09597411  0.29073247  0.32897170    -0.08760
N158        N  0.09218071  0.30408295  0.36041756    -0.65070
N159        N  0.10042654  0.24435862  0.25799336    -0.07560
N160        N  0.09857795  0.21895198  0.23998582    -0.65740
N161        N  0.12738736  0.24552637  0.27508078    -0.08270
N162        N  0.14471812  0.22181177  0.26888736    -0.65330
N163        N  0.06963090  0.29235789  0.31045413    -0.07160
N164        N  0.04751473  0.30707069  0.32889109    -0.66020
Mn165      Mn  0.14264873  0.28353358  0.30321688     1.10660
C166        C  0.06204718  0.31413327  0.35999060     0.96960
C167        C  0.12683930  0.20560892  0.24653259     0.97030
N168        N  0.09325089  0.29995822  0.17609303    -0.08270
N169        N  0.09967584  0.28842802  0.14384083    -0.63650
N170        N  0.04528988  0.32761125  0.24556053    -0.07590
N171        N  0.01730686  0.33755721  0.25775563    -0.60380
N172        N  0.05956650  0.34852213  0.22768856    -0.08900
N173        N  0.04245761  0.37308188  0.22778494    -0.63210
N174        N  0.08013287  0.27939335  0.19582519    -0.07890
N175        N  0.07836127  0.25394780  0.17813157    -0.60400
Mn176      Mn  0.10623219  0.34364938  0.20327071     1.20190
Mn177      Mn  0.07200277  0.28518450  0.25270481     1.10090
Cl178      Cl  0.12527387  0.31350982  0.25334285    -0.88370
C179        C  0.09061331  0.25922989  0.14547057     0.93960
C180        C  0.01630413  0.36635099  0.24696033     0.93760
N181        N  0.31356289  0.10097204  0.06025492    -0.08530
N182        N  0.33363034  0.11717433  0.07973997    -0.60650
N183        N  0.26216193  0.04762510  0.02929010    -0.08210
N184        N  0.24925435  0.02121518  0.03033824    -0.62770
N185        N  0.28918599  0.04751475  0.01145971    -0.07800
N186        N  0.29513942  0.02038632  0.99912166    -0.60620
N187        N  0.28680612  0.09707999  0.07801055    -0.07480
N188        N  0.28836493  0.10950579  0.10999147    -0.63130
C189        C  0.31740454  0.12195048  0.11086454     0.93650
C190        C  0.26998944  0.50451215  0.01158742     0.93430
N191        N  0.18233539  0.09659083  0.00255209    -0.08710
N192        N  0.15466373  0.08702383  0.99054659    -0.61220
N193        N  0.22484710  0.12670246  0.07509297    -0.06830
N194        N  0.21847766  0.12265505  0.10884371    -0.62480
N195        N  0.20129160  0.13968845  0.05889692    -0.08740
N196        N  0.17619607  0.14021293  0.08121327    -0.61490
N197        N  0.19538634  0.07688219  0.02357242    -0.06470
N198        N  0.17676522  0.05314460  0.02569844    -0.62560
Mn199      Mn  0.24204938  0.08657105  0.05155846     1.18440
C200        C  0.15150844  0.05980368  0.00489345     0.95730
C201        C  0.18812599  0.13006755  0.11268105     0.96400
N202        N  0.31124090  0.08196211  0.94431373    -0.08760
N203        N  0.31890268  0.05754952  0.92628582    -0.65070
N204        N  0.32330357  0.15283093  0.97328807    -0.07560
N205        N  0.33868790  0.17843439  0.97401294    -0.65740
N206        N  0.33729486  0.13354840  0.99362759    -0.08270
N207        N  0.36290925  0.14554004  0.00834363    -0.65330
N208        N  0.29700305  0.10090446  0.92337381    -0.07160
N209        N  0.29449112  0.08956205  0.89057656    -0.66020
Mn210      Mn  0.31447169  0.09020425  0.00243712     1.10660
C211        C  0.30804401  0.06235482  0.89299269     0.96960
C212        C  0.36303128  0.17387266  0.99653562     0.97030
N213        N  0.23299439  0.18168181  0.99412091    -0.08270
N214        N  0.22958779  0.20775844  0.01032159    -0.63650
N215        N  0.23341019  0.13807636  0.92005024    -0.07590
N216        N  0.23106130  0.14915563  0.88782229    -0.60380
N217        N  0.20619819  0.14071798  0.93790258    -0.08900
N218        N  0.18527041  0.15446699  0.91759521    -0.63210
N219        N  0.25875103  0.18186384  0.97353858    -0.07890
N220        N  0.27342734  0.20748909  0.97550738    -0.60400
Mn221      Mn  0.20444227  0.14036768  0.99818673     1.20190
Mn222      Mn  0.27835351  0.14314994  0.94649274     1.10090
Cl223      Cl  0.25953792  0.11477639  0.99910845    -0.88370
C224        C  0.25515386  0.22322921  0.99830875     0.93960
C225        C  0.20123302  0.15940707  0.88651939     0.93760
N226        N  0.31278392  0.34587582  0.06211031    -0.08530
N227        N  0.33232462  0.36271972  0.08128086    -0.60650
N228        N  0.25781825  0.29576786  0.02914152    -0.08210
N229        N  0.24294023  0.27021203  0.02821045    -0.62770
N230        N  0.28517217  0.29479560  0.01208901    -0.07800
N231        N  0.28937210  0.26796810  0.99812481    -0.60620
N232        N  0.28593466  0.34212451  0.07981568    -0.07480
N233        N  0.28701327  0.35549565  0.11136701    -0.63130
C234        C  0.31562209  0.36843812  0.11191174     0.93650
C235        C  0.26287246  0.25318095  0.00881230     0.93430
N236        N  0.18068502  0.35068849  0.00600423    -0.08710
N237        N  0.15171206  0.34292332  0.99521335    -0.61220
N238        N  0.22828516  0.37533609  0.07756754    -0.06830
N239        N  0.22529889  0.37346153  0.11206960    -0.62480
N240        N  0.20659623  0.39215870  0.06375750    -0.08740
N241        N  0.18540413  0.39892661  0.08949407    -0.61490
N242        N  0.19338319  0.32916074  0.02464551    -0.06470
N243        N  0.17358509  0.30617445  0.02585662    -0.62560
Mn244      Mn  0.24090636  0.33503036  0.05259236     1.18440
C245        C  0.14771255  0.31471872  0.00709565     0.95730
C246        C  0.19848022  0.38733613  0.11978732     0.96400
N247        N  0.30670416  0.32809155  0.94672308    -0.08760
N248        N  0.30885836  0.30216758  0.92997620    -0.65070
N249        N  0.32867759  0.39812759  0.97339687    -0.07560
N250        N  0.34692837  0.42211914  0.97178803    -0.65740
N251        N  0.34101784  0.37831121  0.99437763    -0.08270
N252        N  0.36840803  0.38855518  0.00738475    -0.65330
N253        N  0.29413065  0.34801402  0.92583362    -0.07160
N254        N  0.28818636  0.33564701  0.89413827    -0.66020
Mn255      Mn  0.31328704  0.33620435  0.00404808     1.10660
C256        C  0.29722694  0.30663799  0.89696802     0.96960
C257        C  0.37186071  0.41607494  0.99297626     0.97030
N258        N  0.24013778  0.43273589  0.99986589    -0.08270
N259        N  0.23747730  0.45909537  0.01540001    -0.63650
N260        N  0.23566760  0.39436071  0.92439261    -0.07590
N261        N  0.23375236  0.40951980  0.89447382    -0.60380
N262        N  0.20894952  0.39671924  0.94334144    -0.08900
N263        N  0.18884583  0.41371838  0.92599295    -0.63210
N264        N  0.26598387  0.43197225  0.97927446    -0.07890
N265        N  0.28140960  0.45732295  0.98072124    -0.60400
Mn266      Mn  0.20764058  0.39361257  0.00313291     1.20190
Mn267      Mn  0.28148217  0.39266933  0.94948758     1.10090
Cl268      Cl  0.26054334  0.36424829  0.00170652    -0.88370
C269        C  0.26347150  0.47380210  0.00326557     0.93960
C270        C  0.20489555  0.42211433  0.89621688     0.93760
N271        N  0.06004731  0.47001187  0.06119542    -0.08530
N272        N  0.07980261  0.48585778  0.08129971    -0.60650
N273        N  0.00519370  0.42376752  0.01934206    -0.08210
N274        N  0.48786948  0.40062052  0.01078969    -0.62770
N275        N  0.03269382  0.42339209  0.00277443    -0.07800
N276        N  0.03488698  0.39889758  0.98285893    -0.60620
N277        N  0.03265592  0.46708059  0.07805487    -0.07480
N278        N  0.03347630  0.48041866  0.10982013    -0.63130
C279        C  0.06283882  0.49206570  0.11157327     0.93650
C280        C  0.00626377  0.38529677  0.98773008     0.93430
N281        N  0.42920685  0.47549523  0.00182342    -0.08710
N282        N  0.40164349  0.46583083  0.98850923    -0.61220
N283        N  0.47201168  0.99749399  0.07806091    -0.06830
N284        N  0.46564652  0.99226066  0.11141478    -0.62480
N285        N  0.45079765  0.01475380  0.06384225    -0.08740
N286        N  0.42711365  0.01898191  0.08746491    -0.61490
N287        N  0.44213497  0.45436660  0.02083428    -0.06470
N288        N  0.42415605  0.43022028  0.02049843    -0.62560
Mn289      Mn  0.48823166  0.46018144  0.04924831     1.18440
C290        C  0.39894724  0.43726397  0.00023329     0.95730
C291        C  0.43779420  0.00516989  0.11735657     0.96400
N292        N  0.05954293  0.46203804  0.94400191    -0.08760
N293        N  0.06627143  0.43851586  0.92407022    -0.65070
N294        N  0.07778005  0.02772445  0.98095624    -0.07560
N295        N  0.09773156  0.05033270  0.98031532    -0.65740
N296        N  0.08973651  0.00581520  0.99903061    -0.08270
N297        N  0.11837996  0.01304798  0.01118861    -0.65330
N298        N  0.04702670  0.98325778  0.92479553    -0.07160
N299        N  0.04512300  0.47407516  0.89076890    -0.66020
Mn300      Mn  0.06195204  0.46435848  0.00230904     1.10660
C301        C  0.05697591  0.44580664  0.89107375     0.96960
C302        C  0.12294891  0.04105611  0.99922841     0.97030
N303        N  0.48570227  0.06061952  0.00717342    -0.08270
N304        N  0.47978155  0.08671402  0.02259352    -0.63650
N305        N  0.48615423  0.02808429  0.92792184    -0.07590
N306        N  0.48396495  0.04409291  0.89870384    -0.60380
N307        N  0.45859158  0.02739238  0.94532122    -0.08900
N308        N  0.43761309  0.04321889  0.92779648    -0.63210
N309        N  0.51329253  0.06163539  0.98968841    -0.07890
N310        N  0.02668781  0.08786148  0.99389177    -0.60400
Mn311      Mn  0.45467709  0.02005715  0.00403236     1.20190
Mn312      Mn  0.03129619  0.02516939  0.95471528     1.10090
Cl313      Cl  0.50876762  0.99250634  0.00192016    -0.88370
C314        C  0.50598200  0.10313713  0.01487123     0.93960
C315        C  0.45387039  0.05404841  0.89938677     0.93760
N316        N  0.44980696  0.27113721  0.05993062    -0.08530
N317        N  0.42947151  0.25725294  0.08107807    -0.60650
N318        N  0.50497600  0.31498560  0.01594758    -0.08210
N319        N  0.02166125  0.33843739  0.00790200    -0.62770
N320        N  0.47705340  0.31499743  0.00085271    -0.07800
N321        N  0.47389608  0.33969843  0.98254313    -0.60620
N322        N  0.47704019  0.27503295  0.07637788    -0.07480
N323        N  0.47558801  0.26412865  0.10895812    -0.63130
C324        C  0.44594892  0.25313692  0.11156112     0.93650
C325        C  0.50242690  0.35369456  0.98682987     0.93430
N326        N  0.08327934  0.26202071  0.00253382    -0.08710
N327        N  0.11346352  0.26866921  0.99474773    -0.61220
N328        N  0.03804898  0.24557537  0.07819582    -0.06830
N329        N  0.04482372  0.25497575  0.11029571    -0.62480
N330        N  0.06010990  0.22800632  0.06485403    -0.08740
N331        N  0.08471484  0.22818811  0.08730194    -0.61490
N332        N  0.06952215  0.28486898  0.01894663    -0.06470
N333        N  0.08955034  0.30757306  0.02123004    -0.62560
Mn334      Mn  0.02210283  0.28068530  0.04721191     1.18440
C335        C  0.11688122  0.29756843  0.00574197     0.95730
C336        C  0.07386433  0.24495139  0.11577954     0.96400
N337        N  0.45104621  0.27316486  0.94343304    -0.08760
N338        N  0.44227672  0.29500445  0.92293231    -0.65070
N339        N  0.43618948  0.20844989  0.98200408    -0.07560
N340        N  0.41820131  0.18460386  0.98093101    -0.65740
N341        N  0.42178682  0.23057588  0.99849317    -0.08270
N342        N  0.39260893  0.22225044  0.00823763    -0.65330
N343        N  0.46461274  0.25152105  0.92468326    -0.07160
N344        N  0.46517460  0.25864958  0.89023792    -0.66020
Mn345      Mn  0.44833943  0.27344057  0.00130668     1.10660
C346        C  0.45138477  0.28614782  0.88993037     0.96960
C347        C  0.39126275  0.19313354  0.99756865     0.97030
N348        N  0.02612490  0.17811493  0.00892519    -0.08270
N349        N  0.03194718  0.15226098  0.02379610    -0.63650
N350        N  0.02667997  0.20828961  0.92873550    -0.07590
N351        N  0.02801632  0.19023367  0.90051680    -0.60380
N352        N  0.05383116  0.20808841  0.94642977    -0.08900
N353        N  0.07355489  0.18936536  0.93000415    -0.63210
N354        N  0.99926166  0.17646326  0.99074748    -0.07890
N355        N  0.48602488  0.15019893  0.99417823    -0.60400
Mn356      Mn  0.05696865  0.21849808  0.00525295     1.20190
Mn357      Mn  0.48171879  0.21152874  0.95557789     1.10090
Cl358      Cl  0.00263566  0.24605509  0.00167551    -0.88370
C359        C  0.00620480  0.13544808  0.01517264     0.93960
C360        C  0.05683639  0.17776570  0.90219489     0.93760
N361        N  0.42937093  0.07199872  0.81299444    -0.08530
N362        N  0.45024012  0.07850340  0.83863300    -0.60650
N363        N  0.44136282  0.01072280  0.77142983    -0.08210
N364        N  0.45982634  0.48690919  0.77117522    -0.62770
N365        N  0.45464390  0.03200904  0.75271483    -0.07800
N366        N  0.48265008  0.02306636  0.73974079    -0.60620
N367        N  0.40771902  0.05445961  0.82649313    -0.07480
N368        N  0.41085068  0.05129845  0.86076021    -0.63130
C369        C  0.43741345  0.06561133  0.86846127     0.93650
C370        C  0.48545725  0.49471678  0.75134419     0.93430
N371        N  0.35077676  0.47798155  0.75386714    -0.08710
N372        N  0.34860218  0.45275113  0.73535669    -0.61220
N373        N  0.34824582  0.02103083  0.82688575    -0.06830
N374        N  0.34594945  0.03093619  0.86011657    -0.62480
N375        N  0.32171155  0.02593739  0.80975916    -0.08740
N376        N  0.30124003  0.04055986  0.83086358    -0.61490
N377        N  0.37829612  0.47885902  0.76981204    -0.06470
N378        N  0.39561651  0.45539505  0.76237244    -0.62560
Mn379      Mn  0.39400582  0.01577444  0.79885365     1.18440
C380        C  0.37723742  0.43932436  0.74049997     0.95730
C381        C  0.31674222  0.04295529  0.86246650     0.96400
N382        N  0.42865944  0.08001847  0.69179558    -0.08760
N383        N  0.44797552  0.09645692  0.67183075    -0.65070
N384        N  0.37365122  0.11648243  0.73333145    -0.07560
N385        N  0.35987577  0.14266047  0.73612095    -0.65740
N386        N  0.40003167  0.11604929  0.75224323    -0.08270
N387        N  0.40505884  0.14234570  0.76728109    -0.65330
N388        N  0.40155477  0.07642982  0.67458152    -0.07160
N389        N  0.40248027  0.08907292  0.64314618    -0.66020
Mn390      Mn  0.42990311  0.07569064  0.75232221     1.10660
C391        C  0.43115168  0.10166685  0.64157473     0.96960
C392        C  0.37930586  0.15836988  0.75776186     0.97030
N393        N  0.29656549  0.06297185  0.74593393    -0.08270
N394        N  0.26874087  0.07312846  0.75822870    -0.63650
N395        N  0.34122888  0.03565918  0.67470374    -0.07590
N396        N  0.34510730  0.02567503  0.64142502    -0.60380
N397        N  0.32793003  0.01492500  0.69391377    -0.08900
N398        N  0.32305962  0.99070271  0.67449784    -0.63210
N399        N  0.31095790  0.08380762  0.72798302    -0.07890
N400        N  0.29417588  0.10850904  0.72821723    -0.60400
Mn401      Mn  0.32232045  0.01977357  0.75132134     1.20190
Mn402      Mn  0.35650911  0.07799326  0.70165363     1.10090
Cl403      Cl  0.37610339  0.04753664  0.75050214    -0.88370
C404        C  0.26809629  0.10194466  0.74751894     0.93960
C405        C  0.33369032  0.99727145  0.64140338     0.93760
N406        N  0.32615770  0.27961345  0.81373376    -0.08530
N407        N  0.30225861  0.27797496  0.83745030    -0.60650
N408        N  0.31557640  0.33918411  0.77254743    -0.08210
N409        N  0.29590360  0.36225946  0.77531198    -0.62770
N410        N  0.30194037  0.31726884  0.75460708    -0.07800
N411        N  0.27230885  0.32480852  0.74606723    -0.60620
N412        N  0.34860758  0.29609793  0.82762888    -0.07480
N413        N  0.34292457  0.30261039  0.86111582    -0.63130
C414        C  0.31407413  0.29195079  0.86727419     0.93650
C415        C  0.26895602  0.35336047  0.75842605     0.93430
N416        N  0.40786640  0.36917193  0.75257916    -0.08710
N417        N  0.41022525  0.39403951  0.73436235    -0.61220
N418        N  0.40979947  0.32643402  0.82540825    -0.06830
N419        N  0.41187633  0.31539463  0.85769361    -0.62480
N420        N  0.43651355  0.32184658  0.80761130    -0.08740
N421        N  0.45683206  0.30657361  0.82723257    -0.61490
N422        N  0.38037366  0.36887968  0.76924684    -0.06470
N423        N  0.36322931  0.39229024  0.76243179    -0.62560
Mn424      Mn  0.36379620  0.33319889  0.79869694     1.18440
C425        C  0.38168654  0.40776055  0.74032776     0.95730
C426        C  0.44099474  0.30296317  0.85858774     0.96400
N427        N  0.33049374  0.26695742  0.69416180    -0.08760
N428        N  0.30830438  0.25261051  0.67609147    -0.65070
N429        N  0.38587257  0.23180471  0.73441027    -0.07560
N430        N  0.39897878  0.20545300  0.73676383    -0.65740
N431        N  0.35900082  0.23318484  0.75332748    -0.08270
N432        N  0.35317189  0.20714803  0.76776235    -0.65330
N433        N  0.35746972  0.26602169  0.67549151    -0.07160
N434        N  0.35367067  0.25122572  0.64491447    -0.66020
Mn435      Mn  0.32817344  0.27372498  0.75359204     1.10660
C436        C  0.32316250  0.24241677  0.64598079     0.96960
C437        C  0.37878366  0.19049478  0.75793571     0.97030
N438        N  0.46373030  0.28530021  0.74391019    -0.08270
N439        N  0.49164068  0.27705005  0.75686117    -0.63650
N440        N  0.41949032  0.30943165  0.67193629    -0.07590
N441        N  0.41562451  0.31958416  0.63894100    -0.60380
N442        N  0.43313250  0.33008989  0.69187166    -0.08900
N443        N  0.43879226  0.35412197  0.67358714    -0.63210
N444        N  0.45110938  0.26350117  0.72530334    -0.07890
N445        N  0.46991887  0.23988219  0.72522029    -0.60400
Mn446      Mn  0.43674205  0.32743046  0.74949010     1.20190
Mn447      Mn  0.40383573  0.26765705  0.70038909     1.10090
Cl448      Cl  0.38257677  0.30037310  0.74939279    -0.88370
C449        C  0.49523452  0.24851966  0.74494376     0.93960
C450        C  0.42765804  0.34778179  0.64083608     0.93760
N451        N  0.07930190  0.15445841  0.81599134    -0.08530
N452        N  0.05880412  0.14948408  0.84270662    -0.60650
N453        N  0.06695807  0.21395405  0.77296497    -0.08210
N454        N  0.04853213  0.23780898  0.77204821    -0.62770
N455        N  0.05370878  0.19171312  0.75528133    -0.07800
N456        N  0.02584117  0.20000959  0.74227757    -0.60620
N457        N  0.10135104  0.17224395  0.82804599    -0.07480
N458        N  0.09904364  0.17690359  0.86233940    -0.63130
C459        C  0.07252253  0.16340630  0.87167859     0.93650
C460        C  0.02295876  0.22897927  0.75282877     0.93430
N461        N  0.15782356  0.24562356  0.75250352    -0.08710
N462        N  0.16040166  0.27088011  0.73507905    -0.61220
N463        N  0.16019301  0.20406158  0.82603194    -0.06830
N464        N  0.16200163  0.19216366  0.85795767    -0.62480
N465        N  0.18670663  0.19947754  0.80788119    -0.08740
N466        N  0.20671575  0.18372336  0.82707923    -0.61490
N467        N  0.13044146  0.24525784  0.76938701    -0.06470
N468        N  0.11352682  0.26897535  0.76353734    -0.62560
Mn469      Mn  0.11459597  0.20952785  0.79921999     1.18440
C470        C  0.13202644  0.28472367  0.74179060     0.95730
C471        C  0.19079134  0.17938180  0.85824840     0.96400
N472        N  0.07929095  0.14046412  0.69638638    -0.08760
N473        N  0.05782726  0.12421179  0.67947928    -0.65070
N474        N  0.13492155  0.10653302  0.73506644    -0.07560
N475        N  0.14788304  0.08005537  0.73630390    -0.65740
N476        N  0.10878542  0.10777942  0.75506532    -0.08270
N477        N  0.10306192  0.08162098  0.76916071    -0.65330
N478        N  0.10572385  0.14084449  0.67691644    -0.07160
N479        N  0.10229779  0.12514587  0.64699659    -0.66020
Mn480      Mn  0.07878304  0.14813615  0.75564602     1.10660
C481        C  0.07267725  0.11416118  0.64922226     0.96960
C482        C  0.12820989  0.06496457  0.75796568     0.97030
N483        N  0.21169123  0.16028082  0.74420846    -0.08270
N484        N  0.23907324  0.15054492  0.75709798    -0.63650
N485        N  0.16725840  0.18480225  0.67234198    -0.07590
N486        N  0.16319236  0.19483266  0.63926799    -0.60380
N487        N  0.18142749  0.20543363  0.69186332    -0.08900
N488        N  0.18704384  0.22931282  0.67329524    -0.63210
N489        N  0.19762152  0.13879433  0.72645671    -0.07890
N490        N  0.21423172  0.11401083  0.72753145    -0.60400
Mn491      Mn  0.18618489  0.20351582  0.74941848     1.20190
Mn492      Mn  0.15167510  0.14303222  0.70132469     1.10090
Cl493      Cl  0.13249842  0.17610686  0.75072896    -0.88370
C494        C  0.23981620  0.12128610  0.74707553     0.93960
C495        C  0.17549461  0.22297382  0.64073989     0.93760
N496        N  0.18015474  0.44749414  0.81240089    -0.08530
N497        N  0.20334993  0.44872010  0.83653147    -0.60650
N498        N  0.19187546  0.38645216  0.77349935    -0.08210
N499        N  0.21150548  0.36349450  0.77662840    -0.62770
N500        N  0.20549665  0.40714594  0.75407974    -0.07800
N501        N  0.23502317  0.39899461  0.74497410    -0.60620
N502        N  0.15612875  0.43335590  0.82658239    -0.07480
N503        N  0.15993887  0.42908349  0.86064593    -0.63130
C504        C  0.18953479  0.43744689  0.86678573     0.93650
C505        C  0.23836032  0.37123810  0.75849726     0.93430
N506        N  0.10031807  0.35455800  0.75579553    -0.08710
N507        N  0.09879851  0.32946510  0.73695440    -0.61220
N508        N  0.09687338  0.40064127  0.82723768    -0.06830
N509        N  0.09481591  0.41326542  0.85919450    -0.62480
N510        N  0.07048584  0.40499303  0.80954543    -0.08740
N511        N  0.05056191  0.42199743  0.82889119    -0.61490
N512        N  0.12752787  0.35561204  0.77243964    -0.06470
N513        N  0.14523422  0.33233681  0.76509944    -0.62560
Mn514      Mn  0.14317659  0.39334603  0.80018280     1.18440
C515        C  0.12744067  0.31627426  0.74255071     0.95730
C516        C  0.06626187  0.42669727  0.86006329     0.96400
N517        N  0.17794613  0.45430719  0.69108878    -0.08760
N518        N  0.19770427  0.47013946  0.67090749    -0.65070
N519        N  0.12252654  0.99124322  0.73254360    -0.07560
N520        N  0.10883192  0.01742512  0.73581098    -0.65740
N521        N  0.14920674  0.99065888  0.75105856    -0.08270
N522        N  0.15435489  0.01680907  0.76635065    -0.65330
N523        N  0.15061663  0.45141906  0.67405005    -0.07160
N524        N  0.15189321  0.46393601  0.64254503    -0.66020
Mn525      Mn  0.17967375  0.45050986  0.75160823     1.10660
C526        C  0.18096443  0.47572611  0.64071455     0.96960
C527        C  0.12854979  0.03290842  0.75736217     0.97030
N528        N  0.04449158  0.43783906  0.74429069    -0.08270
N529        N  0.01632424  0.44679970  0.75678776    -0.63650
N530        N  0.08982638  0.41035945  0.67400937    -0.07590
N531        N  0.09275519  0.40023883  0.64064184    -0.60380
N532        N  0.07705940  0.38970954  0.69385474    -0.08900
N533        N  0.07158112  0.36541812  0.67477326    -0.63210
N534        N  0.05767714  0.45882683  0.72545837    -0.07890
N535        N  0.03900299  0.98247870  0.72453873    -0.60400
Mn536      Mn  0.07140088  0.39585776  0.75140878     1.20190
Mn537      Mn  0.10495046  0.45309178  0.70054334     1.10090
Cl538      Cl  0.12508155  0.42312460  0.75030839    -0.88370
C539        C  0.01319917  0.47479067  0.74416194     0.93960
C540        C  0.08150769  0.37178517  0.64132086     0.93760
N541        N  0.18804772  0.03534949  0.44707323    -0.08530
N542        N  0.18254475  0.05925360  0.42819607    -0.60650
N543        N  0.17003681  0.46784724  0.47866665    -0.08210
N544        N  0.15040042  0.44489741  0.47695348    -0.62770
N545        N  0.15812713  0.48887125  0.49934613    -0.07800
N546        N  0.12987916  0.48076032  0.51213457    -0.60620
N547        N  0.20090764  0.51435670  0.42654561    -0.07480
N548        N  0.20452299  0.02379767  0.39332323    -0.63130
C549        C  0.19321284  0.05203350  0.39488379     0.93650
C550        C  0.12536912  0.45313010  0.49790670     0.93430
N551        N  0.26166991  0.43629636  0.49995862    -0.08710
N552        N  0.26537927  0.41085382  0.51648304    -0.61220
N553        N  0.26172676  0.47090336  0.42349359    -0.06830
N554        N  0.26436136  0.45438486  0.39391752    -0.62480
N555        N  0.28905303  0.47180318  0.44076405    -0.08740
N556        N  0.31028873  0.45578926  0.42289384    -0.61490
N557        N  0.23480966  0.43555328  0.48166834    -0.06470
N558        N  0.21987224  0.41025113  0.48551420    -0.62560
Mn559      Mn  0.21661796  0.47237010  0.45159815     1.18440
C560        C  0.23897497  0.39521922  0.50715255     0.95730
C561        C  0.29450615  0.44458477  0.39442282     0.96400
N562        N  0.18873804  0.02199160  0.56502494    -0.08760
N563        N  0.17094669  0.00384581  0.58438454    -0.65070
N564        N  0.23890392  0.07351728  0.52845440    -0.07560
N565        N  0.25252084  0.09959496  0.52690550    -0.65740
N566        N  0.21160070  0.07293889  0.51194395    -0.08270
N567        N  0.20606249  0.09916545  0.49794958    -0.65330
N568        N  0.21620053  0.02617457  0.58109056    -0.07160
N569        N  0.21726902  0.01161094  0.61141299    -0.66020
Mn570      Mn  0.18505247  0.03070516  0.50629176     1.10660
C571        C  0.18914737  0.99770409  0.61323436     0.96960
C572        C  0.23188112  0.11528772  0.50794068     0.97030
N573        N  0.31741882  0.02181291  0.50000108    -0.08270
N574        N  0.34528773  0.03089549  0.48692903    -0.63650
N575        N  0.27867443  0.49877607  0.57594028    -0.07590
N576        N  0.28695524  0.50299648  0.60903765    -0.60380
N577        N  0.29773374  0.48030980  0.55901264    -0.08900
N578        N  0.32172937  0.47360836  0.58054894    -0.63210
N579        N  0.30463367  0.04310967  0.52019391    -0.08530
N580        N  0.32329047  0.06683871  0.52097416    -0.60400
Mn581      Mn  0.29264356  0.47707691  0.49953448     1.20190
Mn582      Mn  0.25942017  0.03593248  0.55124089     1.10090
Cl583      Cl  0.23871539  0.50413148  0.50155108    -0.88370
C584        C  0.34857337  0.05921871  0.50004926     0.93960
C585        C  0.31361378  0.48760939  0.61203523     0.93760
N586        N  0.19258402  0.29029415  0.44911017    -0.08530
N587        N  0.19085942  0.31645377  0.43386629    -0.60650
N588        N  0.17125691  0.21909523  0.47198655    -0.08210
N589        N  0.15270926  0.19517227  0.47019711    -0.62770
N590        N  0.15873112  0.23908220  0.49372826    -0.07800
N591        N  0.13133124  0.22930396  0.50706167    -0.60620
N592        N  0.20575577  0.27073155  0.42703320    -0.07480
N593        N  0.21284019  0.28355683  0.39630560    -0.63130
C594        C  0.20373245  0.31246547  0.40077258     0.93650
C595        C  0.12765558  0.20179587  0.49215469     0.93430
N596        N  0.26177261  0.18639721  0.49409876    -0.08710
N597        N  0.26460585  0.16051637  0.50950695    -0.61220
N598        N  0.26599600  0.22810358  0.42213068    -0.06830
N599        N  0.27020114  0.21702799  0.38954210    -0.62480
N600        N  0.29261265  0.22637493  0.44049505    -0.08740
N601        N  0.31511708  0.21380205  0.42031689    -0.61490
N602        N  0.23592835  0.18654878  0.47410693    -0.06470
N603        N  0.22064802  0.16112513  0.47583010    -0.62560
Mn604      Mn  0.21921313  0.22609718  0.44744888     1.18440
C605        C  0.23880150  0.14531568  0.49785059     0.95730
C606        C  0.30074122  0.20826267  0.38869599     0.96400
N607        N  0.18508802  0.26788262  0.56337490    -0.08760
N608        N  0.16646456  0.24890067  0.58092336    -0.65070
N609        N  0.23878595  0.32212316  0.53443436    -0.07560
N610        N  0.25267347  0.34824671  0.53498417    -0.65740
N611        N  0.21158841  0.32252137  0.51770922    -0.08270
N612        N  0.20643188  0.34942934  0.50566372    -0.65330
N613        N  0.21146179  0.27262063  0.58129023    -0.07160
N614        N  0.21064803  0.25826504  0.61154560    -0.66020
Mn615      Mn  0.18522753  0.28061236  0.50621839     1.10660
C616        C  0.18300105  0.24334578  0.61118244     0.96960
C617        C  0.23216744  0.36501398  0.51703726     0.97030
N618        N  0.31716423  0.26941791  0.50518493    -0.08270
N619        N  0.34459968  0.27842825  0.49135412    -0.63650
N620        N  0.27229354  0.24245738  0.57680478    -0.07590
N621        N  0.27747929  0.24461717  0.61100388    -0.60380
N622        N  0.29371288  0.22617533  0.56022106    -0.08900
N623        N  0.31661216  0.22000003  0.58342987    -0.63210
N624        N  0.30448993  0.29020596  0.52614652    -0.07890
N625        N  0.32325406  0.31393476  0.52665623    -0.60400
Mn626      Mn  0.29251674  0.22638110  0.49987725     1.20190
Mn627      Mn  0.25703301  0.28254140  0.55468561     1.10090
Cl628      Cl  0.23870539  0.25396973  0.50159671    -0.88370
C629        C  0.34819019  0.30633813  0.50484362     0.93960
C630        C  0.30521989  0.23139290  0.61527048     0.93760
N631        N  0.44395744  0.16412981  0.44886137    -0.08530
N632        N  0.44256131  0.18977420  0.43233230    -0.60650
N633        N  0.42138474  0.09494050  0.47540251    -0.08210
N634        N  0.40199338  0.07178147  0.47274942    -0.62770
N635        N  0.40944352  0.11526863  0.49705803    -0.07800
N636        N  0.38124666  0.10639309  0.50942903    -0.60620
N637        N  0.45656780  0.14364038  0.42753521    -0.07480
N638        N  0.46337672  0.15532589  0.39599307    -0.63130
C639        C  0.45498923  0.18456428  0.39923694     0.93650
C640        C  0.37684517  0.07905671  0.49398433     0.93430
N641        N  0.01041932  0.06060049  0.49962072    -0.08710
N642        N  0.01288576  0.03479885  0.51545272    -0.61220
N643        N  0.01471258  0.09663641  0.42423975    -0.06830
N644        N  0.01725306  0.08048820  0.39437587    -0.62480
N645        N  0.04140059  0.09556333  0.44264826    -0.08740
N646        N  0.06210897  0.07857138  0.42518695    -0.61490
N647        N  0.98434807  0.06082484  0.47993489    -0.06470
N648        N  0.46864477  0.03569356  0.48227979    -0.62560
Mn649      Mn  0.46884612  0.09935100  0.45055931     1.18440
C650        C  0.98659725  0.01986085  0.50440310     0.95730
C651        C  0.04654657  0.06873720  0.39581063     0.96400
N652        N  0.43938707  0.14725217  0.56544503    -0.08760
N653        N  0.42135943  0.12912208  0.58457928    -0.65070
N654        N  0.99192865  0.19854805  0.53078333    -0.07560
N655        N  0.00574922  0.22460082  0.52995785    -0.65740
N656        N  0.46431882  0.19851718  0.51500135    -0.08270
N657        N  0.45873856  0.22501451  0.50205890    -0.65330
N658        N  0.46639631  0.15203111  0.58221631    -0.07160
N659        N  0.46676975  0.13812787  0.61296592    -0.66020
Mn660      Mn  0.43738508  0.15686339  0.50699582     1.10660
C661        C  0.43895921  0.12375374  0.61416259     0.96960
C662        C  0.48476689  0.24074807  0.51200370     0.97030
N663        N  0.06920236  0.14402721  0.50301946    -0.08270
N664        N  0.09662408  0.15284965  0.48845928    -0.63650
N665        N  0.02664279  0.12228340  0.57748506    -0.07590
N666        N  0.03082274  0.12419498  0.61179427    -0.60380
N667        N  0.04503590  0.10249768  0.56208033    -0.08900
N668        N  0.06484554  0.09224291  0.58666773    -0.63210
N669        N  0.05671220  0.16582573  0.52264735    -0.07890
N670        N  0.07526333  0.18959774  0.52172109    -0.60400
Mn671      Mn  0.04293484  0.10011686  0.50178186     1.20190
Mn672      Mn  0.01060435  0.16027490  0.55301296     1.10090
Cl673      Cl  0.99018229  0.12912998  0.50260794    -0.88370
C674        C  0.10010889  0.18150320  0.50030392     0.93960
C675        C  0.05447521  0.10579362  0.61783147     0.93760
N676        N  0.43705896  0.41095788  0.44782512    -0.08530
N677        N  0.43143488  0.43531270  0.42991791    -0.60650
N678        N  0.41999455  0.34174277  0.47626519    -0.08210
N679        N  0.40099103  0.31819787  0.47524388    -0.62770
N680        N  0.40763962  0.36243637  0.49712824    -0.07800
N681        N  0.38003871  0.35359916  0.51078025    -0.60620
N682        N  0.45033176  0.39068202  0.42668339    -0.07480
N683        N  0.45428419  0.40099364  0.39401858    -0.63130
C684        C  0.44264203  0.42898308  0.39661389     0.93650
C685        C  0.37605120  0.32587713  0.49691444     0.93430
N686        N  0.01298381  0.31204101  0.49582260    -0.08710
N687        N  0.01706299  0.28651508  0.51182367    -0.61220
N688        N  0.01314167  0.35160897  0.42230570    -0.06830
N689        N  0.01715220  0.34008354  0.38989143    -0.62480
N690        N  0.04039480  0.35188668  0.43969853    -0.08740
N691        N  0.06309794  0.34024290  0.41908082    -0.61490
N692        N  0.48638047  0.31119304  0.47713692    -0.06470
N693        N  0.47189529  0.28559092  0.48017906    -0.62560
Mn694      Mn  0.46706264  0.34866368  0.44944465     1.18440
C695        C  0.99116999  0.27065494  0.50170274     0.95730
C696        C  0.04823524  0.33317360  0.38821039     0.96400
N697        N  0.43542633  0.39304678  0.56379710    -0.08760
N698        N  0.41736681  0.37399415  0.58186560    -0.65070
N699        N  0.98651205  0.44704511  0.53200514    -0.07560
N700        N  0.99993152  0.47329197  0.53219731    -0.65740
N701        N  0.45951471  0.44681919  0.51483453    -0.08270
N702        N  0.45405516  0.47354373  0.50215461    -0.65330
N703        N  0.46225937  0.39773718  0.58087390    -0.07160
N704        N  0.46237859  0.38319346  0.61102038    -0.66020
Mn705      Mn  0.43346171  0.40426632  0.50620547     1.10660
C706        C  0.43469663  0.36832104  0.61145314     0.96960
C707        C  0.47950196  0.48956645  0.51366600     0.97030
N708        N  0.06594144  0.39702604  0.50274647    -0.08270
N709        N  0.09367209  0.40621333  0.48993442    -0.63650
N710        N  0.02566264  0.37028114  0.57646178    -0.07590
N711        N  0.03363325  0.37389677  0.60982122    -0.60380
N712        N  0.04627526  0.35381249  0.55874982    -0.08900
N713        N  0.07096817  0.34860240  0.57991955    -0.63210
N714        N  0.05302074  0.41756607  0.52386404    -0.07890
N715        N  0.07174606  0.44127147  0.52548399    -0.60400
Mn716      Mn  0.04254099  0.35305646  0.49895016     1.20190
Mn717      Mn  0.00674879  0.40871594  0.55325393     1.10090
Cl718      Cl  0.98787768  0.37878524  0.50102159    -0.88370
C719        C  0.09698587  0.43396679  0.50411898     0.93960
C720        C  0.06178846  0.36079999  0.61208555     0.93760
N721        N  0.43097003  0.71168250  0.31504455    -0.08530
N722        N  0.45442833  0.71182337  0.33905413    -0.60650
N723        N  0.44122703  0.65119746  0.27429250    -0.08210
N724        N  0.46040653  0.62787692  0.27646204    -0.62770
N725        N  0.45506507  0.67215230  0.25560085    -0.07800
N726        N  0.48432855  0.66385669  0.24587412    -0.60620
N727        N  0.40686217  0.69738581  0.32878733    -0.07480
N728        N  0.41090551  0.69197983  0.36254477    -0.63130
C729        C  0.44056332  0.70005896  0.36905916     0.93650
C730        C  0.48716265  0.63575141  0.25832827     0.93430
N731        N  0.34971952  0.61994045  0.25550941    -0.08710
N732        N  0.34726680  0.59402213  0.23856490    -0.61220
N733        N  0.34695236  0.66573036  0.32779518    -0.06830
N734        N  0.34392255  0.67879329  0.35955099    -0.62480
N735        N  0.32026013  0.66769048  0.31002435    -0.08740
N736        N  0.29870790  0.68245019  0.32926208    -0.61490
N737        N  0.37687952  0.62101585  0.27231227    -0.06470
N738        N  0.39377002  0.59697463  0.26678641    -0.62560
Mn739      Mn  0.39298869  0.65831721  0.30093888     1.18440
C740        C  0.37544442  0.58040914  0.24540903     0.95730
C741        C  0.31389786  0.68913121  0.36007389     0.96400
N742        N  0.42790644  0.71841709  0.19385614    -0.08760
N743        N  0.44980952  0.73035769  0.17262480    -0.65070
N744        N  0.37221676  0.75651129  0.23487081    -0.07560
N745        N  0.35862843  0.78274643  0.23690764    -0.65740
N746        N  0.39906777  0.75630407  0.25320927    -0.08270
N747        N  0.40442948  0.78312181  0.26688680    -0.65330
N748        N  0.40051461  0.71709717  0.17665273    -0.07160
N749        N  0.40358779  0.72735917  0.14408893    -0.66020
Mn750      Mn  0.42971726  0.71547095  0.25412013     1.10660
C751        C  0.43411918  0.73557867  0.14172459     0.96960
C752        C  0.37848911  0.79898461  0.25722689     0.97030
N753        N  0.29375978  0.70354820  0.24690371    -0.08270
N754        N  0.26568864  0.71240413  0.25993992    -0.63650
N755        N  0.33764826  0.67756166  0.17460023    -0.07590
N756        N  0.33967626  0.66815046  0.14076143    -0.60380
N757        N  0.32436239  0.65697717  0.19425335    -0.08900
N758        N  0.31704197  0.63346371  0.17478557    -0.63210
N759        N  0.30680656  0.72478061  0.22827982    -0.07890
N760        N  0.28810236  0.74846723  0.22812292    -0.60400
Mn761      Mn  0.32067881  0.66113543  0.25205850     1.20190
Mn762      Mn  0.35411869  0.71913270  0.20254313     1.10090
Cl763      Cl  0.37482982  0.68858710  0.25137092    -0.88370
C764        C  0.26242093  0.74061569  0.24795001     0.93960
C765        C  0.32695866  0.64035539  0.14165311     0.93760
N766        N  0.40515611  0.51017164  0.25889791    -0.08530
N767        N  0.40829544  0.53520549  0.24127315    -0.60650
N768        N  0.40484262  0.96769725  0.32960143    -0.08210
N769        N  0.40601940  0.95906375  0.36292805    -0.62770
N770        N  0.43199789  0.96244851  0.31303837    -0.07800
N771        N  0.45187107  0.94880602  0.33471921    -0.60620
N772        N  0.37704780  0.50966260  0.27424471    -0.07480
N773        N  0.36029633  0.53330633  0.26724795    -0.63130
C774        C  0.37969293  0.54890765  0.24620753     0.93650
C775        C  0.43523506  0.94747887  0.36600749     0.93430
N776        N  0.32317784  0.91785565  0.31158662    -0.08710
N777        N  0.29896469  0.91666039  0.33483885    -0.61220
N778        N  0.31331637  0.97827467  0.27306300    -0.06830
N779        N  0.29484908  0.50214530  0.27332176    -0.62480
N780        N  0.30077715  0.95715494  0.25290633    -0.08740
N781        N  0.27332431  0.96611038  0.23951834    -0.61490
N782        N  0.34631327  0.93283739  0.32656191    -0.06470
N783        N  0.34095774  0.93769031  0.36047237    -0.62560
Mn784      Mn  0.36007637  0.97261920  0.30120300     1.18440
C785        C  0.31123876  0.92892359  0.36545289     0.95730
C786        C  0.26998962  0.49441632  0.25232085     0.96400
N787        N  0.45935586  0.92495107  0.24756480    -0.08760
N788        N  0.48680888  0.91463190  0.25977343    -0.65070
N789        N  0.41579485  0.95297284  0.17708281    -0.07560
N790        N  0.41007181  0.96404463  0.14516650    -0.65740
N791        N  0.42896765  0.97347386  0.19738668    -0.08270
N792        N  0.43191126  0.99853833  0.18003223    -0.65330
N793        N  0.44554113  0.90430253  0.22815849    -0.07160
N794        N  0.46239846  0.87958210  0.22729966    -0.66020
Mn795      Mn  0.43347729  0.96833610  0.25470487     1.10660
C796        C  0.48790395  0.88589614  0.24746716     0.96960
C797        C  0.42007006  0.99288033  0.14720865     0.97030
N798        N  0.32824808  0.90994230  0.19143822    -0.08270
N799        N  0.30805143  0.89530649  0.17056871    -0.63650
N800        N  0.38234315  0.87232968  0.23196092    -0.07590
N801        N  0.39664688  0.84653423  0.23510221    -0.60380
N802        N  0.35539627  0.87296167  0.25048281    -0.08900
N803        N  0.35057879  0.84703683  0.26562519    -0.63210
N804        N  0.35585492  0.91213074  0.17453866    -0.07890
N805        N  0.35466191  0.89992774  0.14236383    -0.60400
Mn806      Mn  0.32541973  0.91372869  0.25132864     1.20190
Mn807      Mn  0.40030000  0.91042166  0.20181750     1.10090
Cl808      Cl  0.37970204  0.94123781  0.25193378    -0.88370
C809        C  0.32501927  0.88946406  0.14012953     0.93960
C810        C  0.37699066  0.83115514  0.25655183     0.93760
N811        N  0.06352890  0.60334521  0.27266793    -0.08530
N812        N  0.04399468  0.62641490  0.27568399    -0.60650
N813        N  0.07426653  0.54306415  0.31189923    -0.08210
N814        N  0.05070930  0.54104366  0.33592083    -0.62770
N815        N  0.09718343  0.55869518  0.32626933    -0.07800
N816        N  0.09234214  0.56366188  0.36027416    -0.60620
N817        N  0.05009512  0.58186724  0.25379619    -0.07480
N818        N  0.02070414  0.58964760  0.24483138    -0.63130
C819        C  0.01741392  0.61791006  0.25798886     0.93650
C820        C  0.06321814  0.55372940  0.36622992     0.93430
N821        N  0.13338898  0.99729165  0.23220967    -0.08710
N822        N  0.14720120  0.97130626  0.23561341    -0.61220
N823        N  0.07804067  0.53370905  0.19130926    -0.06830
N824        N  0.05710890  0.51930836  0.17097034    -0.62480
N825        N  0.10559891  0.53491959  0.17395950    -0.08740
N826        N  0.10352806  0.52219988  0.14207228    -0.61490
N827        N  0.10634372  0.99834468  0.25066740    -0.06470
N828        N  0.10108200  0.97266357  0.26608364    -0.62560
Mn829      Mn  0.07581729  0.53857885  0.25144782     1.18440
C830        C  0.12716836  0.95642340  0.25718884     0.95730
C831        C  0.07346562  0.51250229  0.14034493     0.96400
N832        N  0.15608702  0.59241549  0.32787220    -0.08760
N833        N  0.15714221  0.58304827  0.36095635    -0.65070
N834        N  0.15578445  0.63486899  0.25680026    -0.07560
N835        N  0.15931894  0.66032785  0.24020166    -0.65740
N836        N  0.12778261  0.63429888  0.27229980    -0.08270
N837        N  0.11135485  0.65829490  0.26640036    -0.65330
N838        N  0.18304656  0.58683644  0.31101910    -0.07160
N839        N  0.20250682  0.57209522  0.33230568    -0.66020
Mn840      Mn  0.11101612  0.59769431  0.29978371     1.10660
C841        C  0.18591085  0.57045208  0.36369176     0.96960
C842        C  0.13095309  0.67419975  0.24598769     0.97030
N843        N  0.16642260  0.57698116  0.17406603    -0.08270
N844        N  0.16196831  0.58721501  0.14136129    -0.63650
N845        N  0.21084914  0.55106039  0.24515737    -0.07590
N846        N  0.23865406  0.54241533  0.25804301    -0.60380
N847        N  0.19837196  0.52974498  0.22557645    -0.08900
N848        N  0.21722204  0.00615004  0.22466440    -0.63210
N849        N  0.17901780  0.59797041  0.19425794    -0.07890
N850        N  0.18267223  0.62256913  0.17607590    -0.60400
Mn851      Mn  0.15132726  0.53454071  0.20028695     1.20190
Mn852      Mn  0.18398748  0.59330955  0.25224697     1.10090
Cl853      Cl  0.13036121  0.56599946  0.25041718    -0.88370
C854        C  0.17170719  0.61617032  0.14297116     0.93960
C855        C  0.24237035  0.51423174  0.24497170     0.93760
N856        N  0.19076683  0.77726588  0.27634878    -0.08530
N857        N  0.20914968  0.75330946  0.27616870    -0.60650
N858        N  0.17955207  0.83767019  0.31670310    -0.08210
N859        N  0.20258906  0.83938634  0.34105042    -0.62770
N860        N  0.15574823  0.82302522  0.33050664    -0.07800
N861        N  0.15954836  0.81860718  0.36450422    -0.60620
N862        N  0.20390399  0.79813426  0.25681212    -0.07480
N863        N  0.23170956  0.78889167  0.24355478    -0.63130
C864        C  0.23464065  0.76069251  0.25566926     0.93650
C865        C  0.18878997  0.82795438  0.37119550     0.93430
N866        N  0.12203385  0.88185450  0.23615189    -0.08710
N867        N  0.10858829  0.90817152  0.23728717    -0.61220
N868        N  0.17825673  0.84766522  0.19665962    -0.06830
N869        N  0.19814507  0.86558202  0.17987378    -0.62480
N870        N  0.15178845  0.84565309  0.17792618    -0.08740
N871        N  0.15369031  0.86165395  0.14868228    -0.61490
N872        N  0.14819844  0.88178221  0.25561454    -0.06470
N873        N  0.15340171  0.90857027  0.26922245    -0.62560
Mn874      Mn  0.17893302  0.84173760  0.25622027     1.18440
C875        C  0.12796537  0.92440395  0.25832479     0.95730
C876        C  0.18215678  0.87483466  0.15067732     0.96400
N877        N  0.09596711  0.79072811  0.32896723    -0.08760
N878        N  0.09217303  0.80407637  0.36041414    -0.65070
N879        N  0.10042553  0.74435989  0.25798600    -0.07560
N880        N  0.09857740  0.71895333  0.23997807    -0.65740
N881        N  0.12738517  0.74552681  0.27507545    -0.08270
N882        N  0.14471568  0.72181186  0.26888329    -0.65330
N883        N  0.06962536  0.79235724  0.31044733    -0.07160
N884        N  0.04750957  0.80707084  0.32888417    -0.66020
Mn885      Mn  0.14264365  0.78353117  0.30321761     1.10660
C886        C  0.06204089  0.81412954  0.35998582     0.96960
C887        C  0.12683799  0.70560956  0.24652686     0.97030
N888        N  0.09325989  0.79996521  0.17608945    -0.08270
N889        N  0.09968811  0.78843616  0.14383724    -0.63650
N890        N  0.04528363  0.82760961  0.24554637    -0.07590
N891        N  0.01729023  0.83754683  0.25772138    -0.60380
N892        N  0.05956107  0.84852327  0.22767970    -0.08900
N893        N  0.04244218  0.87307692  0.22776063    -0.63210
N894        N  0.08014142  0.77939873  0.19581901    -0.07890
N895        N  0.07837433  0.75395339  0.17812480    -0.60400
Mn896      Mn  0.10623442  0.84365646  0.20327436     1.20190
Mn897      Mn  0.07200197  0.78518605  0.25269673     1.10090
Cl898      Cl  0.12527205  0.81351311  0.25334597    -0.88370
C899        C  0.09062812  0.75923701  0.14546534     0.93960
C900        C  0.01628091  0.86633854  0.24691919     0.93760
N901        N  0.31357022  0.60095529  0.06026126    -0.08530
N902        N  0.33363673  0.61715777  0.07974809    -0.60650
N903        N  0.26216763  0.54761178  0.02929604    -0.08210
N904        N  0.24925700  0.52120326  0.03034129    -0.62770
N905        N  0.28919226  0.54749967  0.01146733    -0.07800
N906        N  0.29514357  0.52037199  0.99912668    -0.60620
N907        N  0.28681280  0.59706349  0.07801537    -0.07480
N908        N  0.28836996  0.60948888  0.10999672    -0.63130
C909        C  0.31740924  0.62193356  0.11087203     0.93650
C910        C  0.26998737  0.00452391  0.01158486     0.93430
N911        N  0.18234389  0.59658226  0.00255381    -0.08710
N912        N  0.15467082  0.58701817  0.99054827    -0.61220
N913        N  0.22485772  0.62669110  0.07509397    -0.06830
N914        N  0.21848625  0.62264555  0.10884460    -0.62480
N915        N  0.20130539  0.63968042  0.05889625    -0.08740
N916        N  0.17620925  0.64021000  0.08121156    -0.61490
N917        N  0.19539246  0.57687255  0.02357424    -0.06470
N918        N  0.17676816  0.55313694  0.02570058    -0.62560
Mn919      Mn  0.24205645  0.58655805  0.05156167     1.18440
C920        C  0.15151208  0.55979858  0.00489552     0.95730
C921        C  0.18813600  0.63006355  0.11268025     0.96400
N922        N  0.31124904  0.58193831  0.94431746    -0.08760
N923        N  0.31890991  0.55752477  0.92628980    -0.65070
N924        N  0.32331459  0.65280513  0.97328684    -0.07560
N925        N  0.33869521  0.67841014  0.97401555    -0.65740
N926        N  0.33730404  0.63352441  0.99362950    -0.08270
N927        N  0.36291428  0.64551817  0.00835210    -0.65330
N928        N  0.29701143  0.60088015  0.92337702    -0.07160
N929        N  0.29449849  0.58953716  0.89058011    -0.66020
Mn930      Mn  0.31448016  0.59018417  0.00244224     1.10660
C931        C  0.30805048  0.56232987  0.89299666     0.96960
C932        C  0.36303384  0.67385030  0.99654394     0.97030
N933        N  0.23301516  0.68166710  0.99411677    -0.08270
N934        N  0.22961071  0.70774588  0.01031575    -0.63650
N935        N  0.23342170  0.63806028  0.92004905    -0.07590
N936        N  0.23107233  0.64914147  0.88782152    -0.60380
N937        N  0.20621116  0.64070390  0.93790291    -0.08900
N938        N  0.18528326  0.65445514  0.91759759    -0.63210
N939        N  0.25876975  0.68184599  0.97353446    -0.07890
N940        N  0.27344967  0.70747136  0.97549977    -0.60400
Mn941      Mn  0.20445661  0.64035645  0.99818647     1.20190
Mn942      Mn  0.27836632  0.64312843  0.94649122     1.10090
Cl943      Cl  0.25954853  0.61475976  0.99911006    -0.88370
C944        C  0.25517766  0.72321301  0.99830008     0.93960
C945        C  0.20124467  0.65939517  0.88652142     0.93760
N946        N  0.31279379  0.84586244  0.06210637    -0.08530
N947        N  0.33233176  0.86271031  0.08127691    -0.60650
N948        N  0.25783429  0.79575472  0.02912472    -0.08210
N949        N  0.24295941  0.77019602  0.02819533    -0.62770
N950        N  0.28518724  0.79478563  0.01207501    -0.07800
N951        N  0.28939259  0.76795688  0.99811104    -0.60620
N952        N  0.28594591  0.84210647  0.07981137    -0.07480
N953        N  0.28702208  0.85547860  0.11136339    -0.63130
C954        C  0.31562835  0.86842580  0.11190758     0.93650
C955        C  0.26289459  0.75316796  0.00879915     0.93430
N956        N  0.18069442  0.85068134  0.00601093    -0.08710
N957        N  0.15171916  0.84291925  0.99522304    -0.61220
N958        N  0.22828230  0.87529975  0.07757841    -0.06830
N959        N  0.22529816  0.87342386  0.11208030    -0.62480
N960        N  0.20661318  0.89214759  0.06377348    -0.08740
N961        N  0.18543754  0.89894321  0.08951728    -0.61490
N962        N  0.19339536  0.82914675  0.02463871    -0.06470
N963        N  0.17359715  0.80616007  0.02584422    -0.62560
Mn964      Mn  0.24091689  0.83500992  0.05258638     1.18440
C965        C  0.14772128  0.81471063  0.00709360     0.95730
C966        C  0.19850350  0.88733553  0.11980670     0.96400
N967        N  0.30670963  0.82809465  0.94671776    -0.08760
N968        N  0.30886033  0.80217158  0.92996855    -0.65070
N969        N  0.32868155  0.89812664  0.97340121    -0.07560
N970        N  0.34693089  0.92211914  0.97179447    -0.65740
N971        N  0.34102318  0.87830861  0.99437804    -0.08270
N972        N  0.36841351  0.88855215  0.00738540    -0.65330
N973        N  0.29413430  0.84801910  0.92583250    -0.07160
N974        N  0.28818662  0.83565435  0.89413647    -0.66020
Mn975      Mn  0.31329674  0.83619891  0.00404213     1.10660
C976        C  0.29722590  0.80664453  0.89696267     0.96960
C977        C  0.37186362  0.91607323  0.99298038     0.97030
N978        N  0.24014743  0.93273753  0.99988376    -0.08270
N979        N  0.23748385  0.95909948  0.01541203    -0.63650
N980        N  0.23567089  0.89436748  0.92440467    -0.07590
N981        N  0.23375332  0.90952725  0.89448662    -0.60380
N982        N  0.20895436  0.89672518  0.94335615    -0.08900
N983        N  0.18884887  0.91372437  0.92600984    -0.63210
N984        N  0.26599179  0.93197520  0.97928914    -0.07890
N985        N  0.28141292  0.95732887  0.98072870    -0.60400
Mn986      Mn  0.20765085  0.89361021  0.00314824     1.20190
Mn987      Mn  0.28148670  0.89267264  0.94949541     1.10090
Cl988      Cl  0.26055192  0.86424320  0.00171042    -0.88370
C989        C  0.26347440  0.97380946  0.00327165     0.93960
C990        C  0.20489633  0.92212133  0.89623231     0.93760
N991        N  0.06004172  0.97001736  0.06119630    -0.08530
N992        N  0.07979854  0.98586087  0.08130123    -0.60650
N993        N  0.00518490  0.92377474  0.01934569    -0.08210
N994        N  0.48784013  0.90061968  0.01079045    -0.62770
N995        N  0.03268571  0.92339654  0.00277917    -0.07800
N996        N  0.03488103  0.89889713  0.98287280    -0.60620
N997        N  0.03264951  0.96708896  0.07805505    -0.07480
N998        N  0.03347056  0.98042683  0.10982028    -0.63130
C999        C  0.06283461  0.99207041  0.11157425     0.93650
C1000       C  0.00625867  0.88529560  0.98774818     0.93430
N1001       N  0.42920961  0.97549105  0.00182615    -0.08710
N1002       N  0.40164752  0.96582678  0.98850871    -0.61220
N1003       N  0.47200243  0.49749111  0.07805972    -0.06830
N1004       N  0.46563843  0.49225483  0.11141297    -0.62480
N1005       N  0.45079118  0.51475645  0.06384548    -0.08740
N1006       N  0.42711089  0.51898860  0.08747178    -0.61490
N1007       N  0.44213256  0.95436521  0.02084472    -0.06470
N1008       N  0.42415222  0.93022001  0.02051111    -0.62560
Mn1009     Mn  0.48822897  0.96017486  0.04925636     1.18440
C1010       C  0.39894799  0.93726236  0.00023932     0.95730
C1011       C  0.43779059  0.50517098  0.11736004     0.96400
N1012       N  0.05953994  0.96203887  0.94400241    -0.08760
N1013       N  0.06626729  0.93851533  0.92407248    -0.65070
N1014       N  0.07777962  0.52772263  0.98096070    -0.07560
N1015       N  0.09773159  0.55033105  0.98032006    -0.65740
N1016       N  0.08973741  0.50581275  0.99903247    -0.08270
N1017       N  0.11838163  0.51304457  0.01118899    -0.65330
N1018       N  0.04702638  0.48325652  0.92479731    -0.07160
N1019       N  0.04512454  0.97407514  0.89076752    -0.66020
Mn1020     Mn  0.06194795  0.96436181  0.00230994     1.10660
C1021       C  0.05697456  0.94580560  0.89107477     0.96960
C1022       C  0.12295018  0.54105315  0.99923091     0.97030
N1023       N  0.48568971  0.56063376  0.00718406    -0.08270
N1024       N  0.47977137  0.58672587  0.02261213    -0.63650
N1025       N  0.48614213  0.52810399  0.92792737    -0.07590
N1026       N  0.48395052  0.54411359  0.89871070    -0.60380
N1027       N  0.45858011  0.52740875  0.94532738    -0.08900
N1028       N  0.43759956  0.54323428  0.92780427    -0.63210
N1029       N  0.51327855  0.56165302  0.98969689    -0.07890
N1030       N  0.02668560  0.58785051  0.99390486    -0.60400
Mn1031     Mn  0.45466832  0.52006671  0.00403717     1.20190
Mn1032     Mn  0.03129290  0.52516435  0.95472164     1.10090
Cl1033     Cl  0.50876357  0.49252311  0.00191930    -0.88370
C1034       C  0.50597253  0.60314998  0.01489277     0.93960
C1035       C  0.45385527  0.55406698  0.89939502     0.93760
N1036       N  0.44977190  0.77113162  0.05993387    -0.08530
N1037       N  0.42944308  0.75723803  0.08108003    -0.60650
N1038       N  0.50492152  0.81499249  0.01595190    -0.08210
N1039       N  0.02166050  0.83843281  0.00791450    -0.62770
N1040       N  0.47700120  0.81500102  0.00085391    -0.07800
N1041       N  0.47384591  0.83969880  0.98253663    -0.60620
N1042       N  0.47700429  0.77503360  0.07638070    -0.07480
N1043       N  0.47555907  0.76412480  0.10895860    -0.63130
C1044       C  0.44592448  0.75312361  0.11156077     0.93650
C1045       C  0.50237780  0.85369427  0.98682174     0.93430
N1046       N  0.08328865  0.76201031  0.00253448    -0.08710
N1047       N  0.11347277  0.76865966  0.99474799    -0.61220
N1048       N  0.03805895  0.74556577  0.07819780    -0.06830
N1049       N  0.04483599  0.75497247  0.11029453    -0.62480
N1050       N  0.06012240  0.72799928  0.06485630    -0.08740
N1051       N  0.08473090  0.72819039  0.08729951    -0.61490
N1052       N  0.06953043  0.78485891  0.01894540    -0.06470
N1053       N  0.08955785  0.80756407  0.02122682    -0.62560
Mn1054     Mn  0.02211053  0.78067387  0.04721205     1.18440
C1055       C  0.11688933  0.79755975  0.00573951     0.95730
C1056       C  0.07388064  0.74495663  0.11577451     0.96400
N1057       N  0.45101671  0.77315883  0.94343434    -0.08760
N1058       N  0.44225129  0.79499932  0.92293296    -0.65070
N1059       N  0.43617790  0.70844301  0.98200811    -0.07560
N1060       N  0.41819886  0.68459104  0.98094083    -0.65740
N1061       N  0.42176900  0.73056537  0.99849631    -0.08270
N1062       N  0.39259558  0.72223213  0.00824608    -0.65330
N1063       N  0.46459226  0.75151864  0.92468675    -0.07160
N1064       N  0.46516445  0.75865039  0.89024251    -0.66020
Mn1065     Mn  0.44830389  0.77343576  0.00130831     1.10660
C1066       C  0.45137101  0.78614681  0.88993349     0.96960
C1067       C  0.39126005  0.69311425  0.99758191     0.97030
N1068       N  0.02613445  0.67810166  0.00893287    -0.08270
N1069       N  0.03195240  0.65224867  0.02380893    -0.63650
N1070       N  0.02669140  0.70827439  0.92874022    -0.07590
N1071       N  0.02802765  0.69021796  0.90052212    -0.60380
N1072       N  0.05384227  0.70807320  0.94643480    -0.08900
N1073       N  0.07356586  0.68934945  0.93001007    -0.63210
N1074       N  0.99927187  0.67645010  0.99075407    -0.07890
N1075       N  0.48601622  0.65020779  0.99419297    -0.60400
Mn1076     Mn  0.05697941  0.71848611  0.00525695     1.20190
Mn1077     Mn  0.48170450  0.71153047  0.95558227     1.10090
Cl1078     Cl  0.00264521  0.74604157  0.00167755    -0.88370
C1079       C  0.00620763  0.63543734  0.01518771     0.93960
C1080       C  0.05684733  0.67774953  0.90220094     0.93760
N1081       N  0.42936274  0.57199441  0.81299437    -0.08530
N1082       N  0.45021992  0.57851654  0.83863923    -0.60650
N1083       N  0.44136241  0.51071900  0.77141800    -0.08210
N1084       N  0.45982484  0.98691145  0.77119031    -0.62770
N1085       N  0.45464269  0.53200925  0.75270900    -0.07800
N1086       N  0.48265021  0.52307031  0.73973469    -0.60620
N1087       N  0.40772115  0.55444225  0.82648893    -0.07480
N1088       N  0.41084804  0.55128424  0.86075685    -0.63130
C1089       C  0.43739631  0.56561777  0.86846503     0.93650
C1090       C  0.48545567  0.99471428  0.75135574     0.93430
N1091       N  0.35077686  0.97798910  0.75387931    -0.08710
N1092       N  0.34860448  0.95275828  0.73536936    -0.61220
N1093       N  0.34824847  0.52101261  0.82688053    -0.06830
N1094       N  0.34595345  0.53091228  0.86011417    -0.62480
N1095       N  0.32171360  0.52592192  0.80975680    -0.08740
N1096       N  0.30124271  0.54054056  0.83086601    -0.61490
N1097       N  0.37829426  0.97886682  0.76982882    -0.06470
N1098       N  0.39561519  0.95540232  0.76239293    -0.62560
Mn1099     Mn  0.39400730  0.51576251  0.79884347     1.18440
C1100       C  0.37723892  0.93933151  0.74051745     0.95730
C1101       C  0.31674606  0.54293056  0.86246868     0.96400
N1102       N  0.42865598  0.58002026  0.69179600    -0.08760
N1103       N  0.44797226  0.59645897  0.67183175    -0.65070
N1104       N  0.37364625  0.61648080  0.73333324    -0.07560
N1105       N  0.35987181  0.64265951  0.73611994    -0.65740
N1106       N  0.40002644  0.61604804  0.75224530    -0.08270
N1107       N  0.40505469  0.64234538  0.76728042    -0.65330
N1108       N  0.40155159  0.57643140  0.67458152    -0.07160
N1109       N  0.40247718  0.58907505  0.64314649    -0.66020
Mn1110     Mn  0.42989868  0.57568998  0.75232226     1.10660
C1111       C  0.43114866  0.60166905  0.64157562     0.96960
C1112       C  0.37930240  0.65836979  0.75775941     0.97030
N1113       N  0.29656474  0.56296518  0.74593675    -0.08270
N1114       N  0.26874043  0.57312121  0.75823343    -0.63650
N1115       N  0.34122673  0.53565826  0.67470173    -0.07590
N1116       N  0.34510521  0.52567579  0.64142232    -0.60380
N1117       N  0.32792819  0.51492291  0.69391014    -0.08900
N1118       N  0.32305861  0.49070137  0.67449269    -0.63210
N1119       N  0.31095626  0.58380193  0.72798659    -0.07890
N1120       N  0.29417449  0.60850340  0.72822368    -0.60400
Mn1121     Mn  0.32231996  0.51976612  0.75131777     1.20190
Mn1122     Mn  0.35650607  0.57799133  0.70165444     1.10090
Cl1123     Cl  0.37610157  0.54753193  0.75049992    -0.88370
C1124       C  0.26809579  0.60193807  0.74752596     0.93960
C1125       C  0.33368889  0.49727193  0.64139882     0.93760
N1126       N  0.32615515  0.77961504  0.81372922    -0.08530
N1127       N  0.30225384  0.77798200  0.83744367    -0.60650
N1128       N  0.31557611  0.83918494  0.77254509    -0.08210
N1129       N  0.29590347  0.86226020  0.77531137    -0.62770
N1130       N  0.30193993  0.81727038  0.75460375    -0.07800
N1131       N  0.27230822  0.82481034  0.74606509    -0.60620
N1132       N  0.34860728  0.79609639  0.82762489    -0.07480
N1133       N  0.34292369  0.80261056  0.86111121    -0.63130
C1134       C  0.31407042  0.79195703  0.86726735     0.93650
C1135       C  0.26895574  0.85336187  0.75842555     0.93430
N1136       N  0.40786613  0.86917485  0.75258280    -0.08710
N1137       N  0.41022745  0.89404609  0.73437323    -0.61220
N1138       N  0.40979657  0.82643578  0.82540761    -0.06830
N1139       N  0.41187067  0.81539729  0.85769337    -0.62480
N1140       N  0.43651117  0.82184656  0.80761259    -0.08740
N1141       N  0.45682741  0.80657238  0.82723573    -0.61490
N1142       N  0.38037260  0.86888122  0.76924877    -0.06470
N1143       N  0.36323004  0.89229416  0.76243979    -0.62560
Mn1144     Mn  0.36379489  0.83319912  0.79869511     1.18440
C1145       C  0.38168913  0.90776754  0.74034110     0.95730
C1146       C  0.44098770  0.80296401  0.85858996     0.96400
N1147       N  0.33049405  0.76695965  0.69415875    -0.08760
N1148       N  0.30830522  0.75261156  0.67608915    -0.65070
N1149       N  0.38587125  0.73180525  0.73440720    -0.07560
N1150       N  0.39897656  0.70545300  0.73676033    -0.65740
N1151       N  0.35899924  0.73318575  0.75332391    -0.08270
N1152       N  0.35316929  0.70714885  0.76775814    -0.65330
N1153       N  0.35747015  0.76602393  0.67548873    -0.07160
N1154       N  0.35367157  0.75122695  0.64491226    -0.66020
Mn1155     Mn  0.32817257  0.77372661  0.75358829     1.10660
C1156       C  0.32316367  0.74241730  0.64597911     0.96960
C1157       C  0.37878060  0.69049496  0.75793159     0.97030
N1158       N  0.46372937  0.78530080  0.74391029    -0.08270
N1159       N  0.49163911  0.77704972  0.75686226    -0.63650
N1160       N  0.41949035  0.80943425  0.67193661    -0.07590
N1161       N  0.41562366  0.81958741  0.63894175    -0.60380
N1162       N  0.43313197  0.83009256  0.69187250    -0.08900
N1163       N  0.43879047  0.85412531  0.67358856    -0.63210
N1164       N  0.45110848  0.76350204  0.72530287    -0.07890
N1165       N  0.46991726  0.73988248  0.72522049    -0.60400
Mn1166     Mn  0.43674142  0.82743195  0.74949128     1.20190
Mn1167     Mn  0.40383553  0.76765863  0.70038750     1.10090
Cl1168     Cl  0.38257628  0.80037450  0.74939093    -0.88370
C1169       C  0.49523256  0.74851917  0.74494495     0.93960
C1170       C  0.42765609  0.84778539  0.64083740     0.93760
N1171       N  0.07930890  0.65445060  0.81599495    -0.08530
N1172       N  0.05881330  0.64947218  0.84271098    -0.60650
N1173       N  0.06696394  0.71394995  0.77297371    -0.08210
N1174       N  0.04853972  0.73780606  0.77205352    -0.62770
N1175       N  0.05371528  0.69171000  0.75528773    -0.07800
N1176       N  0.02585031  0.70000816  0.74227864    -0.60620
N1177       N  0.10135839  0.67223506  0.82805079    -0.07480
N1178       N  0.09905343  0.67689022  0.86234516    -0.63130
C1179       C  0.07253324  0.66339121  0.87168412     0.93650
C1180       C  0.02296836  0.72897787  0.75282936     0.93430
N1181       N  0.15782836  0.74562015  0.75251399    -0.08710
N1182       N  0.16040429  0.77087635  0.73508815    -0.61220
N1183       N  0.16020077  0.70405296  0.82603979    -0.06830
N1184       N  0.16201104  0.69215270  0.85796447    -0.62480
N1185       N  0.18671368  0.69947096  0.80788777    -0.08740
N1186       N  0.20672449  0.68371595  0.82708329    -0.61490
N1187       N  0.13044750  0.74525426  0.76939998    -0.06470
N1188       N  0.11353166  0.76897137  0.76355093    -0.62560
Mn1189     Mn  0.11460241  0.70952170  0.79922939     1.18440
C1190       C  0.13202905  0.78471943  0.74180151     0.95730
C1191       C  0.19080140  0.67937191  0.85825252     0.96400
N1192       N  0.07929497  0.64046426  0.69638964    -0.08760
N1193       N  0.05783096  0.62421268  0.67948207    -0.65070
N1194       N  0.13492482  0.60653006  0.73506678    -0.07560
N1195       N  0.14788560  0.58005209  0.73630210    -0.65740
N1196       N  0.10878879  0.60777597  0.75506565    -0.08270
N1197       N  0.10306440  0.58161703  0.76915902    -0.65330
N1198       N  0.10572776  0.64084488  0.67691957    -0.07160
N1199       N  0.10230138  0.62514714  0.64699908    -0.66020
Mn1200     Mn  0.07878810  0.64813284  0.75564960     1.10660
C1201       C  0.07268073  0.61416272  0.64922469     0.96960
C1202       C  0.12821187  0.56496079  0.75796261     0.97030
N1203       N  0.21169463  0.66027640  0.74421353    -0.08270
N1204       N  0.23907490  0.65053868  0.75710558    -0.63650
N1205       N  0.16726216  0.68480111  0.67234891    -0.07590
N1206       N  0.16319472  0.69483265  0.63927579    -0.60380
N1207       N  0.18143133  0.70543188  0.69187096    -0.08900
N1208       N  0.18704660  0.72931194  0.67330409    -0.63210
N1209       N  0.19762453  0.63879083  0.72646075    -0.07890
N1210       N  0.21423273  0.61400620  0.72753697    -0.60400
Mn1211     Mn  0.18618981  0.70351195  0.74942567     1.20190
Mn1212     Mn  0.15167884  0.64303047  0.70132825     1.10090
Cl1213     Cl  0.13250346  0.67610329  0.75073487    -0.88370
C1214       C  0.23981619  0.62127980  0.74708348     0.93960
C1215       C  0.17549632  0.72297384  0.64074900     0.93760
N1216       N  0.18015285  0.94749409  0.81241282    -0.08530
N1217       N  0.20334560  0.94872697  0.83654621    -0.60650
N1218       N  0.19187583  0.88645241  0.77350408    -0.08210
N1219       N  0.21150552  0.86349411  0.77662934    -0.62770
N1220       N  0.20549723  0.90714834  0.75408794    -0.07800
N1221       N  0.23502349  0.89899755  0.74498064    -0.60620
N1222       N  0.15613025  0.93334949  0.82659238    -0.07480
N1223       N  0.15994004  0.92907622  0.86065590    -0.63130
C1224       C  0.18953222  0.93744930  0.86679928     0.93650
C1225       C  0.23836026  0.87123947  0.75849929     0.93430
N1226       N  0.10031987  0.85455602  0.75579720    -0.08710
N1227       N  0.09879997  0.82946118  0.73695948    -0.61220
N1228       N  0.09687274  0.90063792  0.82724110    -0.06830
N1229       N  0.09481453  0.91326217  0.85919788    -0.62480
N1230       N  0.07048584  0.90499038  0.80954772    -0.08740
N1231       N  0.05056188  0.92199530  0.82889270    -0.61490
N1232       N  0.12752938  0.85561080  0.77244166    -0.06470
N1233       N  0.14523528  0.83233457  0.76510525    -0.62560
Mn1234     Mn  0.14317694  0.89334351  0.80018733     1.18440
C1235       C  0.12744191  0.81627027  0.74255837     0.95730
C1236       C  0.06626079  0.92669472  0.86006555     0.96400
N1237       N  0.17794853  0.95431158  0.69109855    -0.08760
N1238       N  0.19770676  0.97014383  0.67091711    -0.65070
N1239       N  0.12252645  0.49124138  0.73253555    -0.07560
N1240       N  0.10883189  0.51742306  0.73580581    -0.65740
N1241       N  0.14920770  0.49065621  0.75104845    -0.08270
N1242       N  0.15435660  0.51680542  0.76634232    -0.65330
N1243       N  0.15061988  0.95142179  0.67405858    -0.07160
N1244       N  0.15189696  0.96393757  0.64255289    -0.66020
Mn1245     Mn  0.17967387  0.95051251  0.75161889     1.10660
C1246       C  0.18096769  0.97572865  0.64072287     0.96960
C1247       C  0.12855104  0.53290507  0.75735682     0.97030
N1248       N  0.04449238  0.93783904  0.74429244    -0.08270
N1249       N  0.01632388  0.94679965  0.75678658    -0.63650
N1250       N  0.08983017  0.91036116  0.67401273    -0.07590
N1251       N  0.09275789  0.90024260  0.64064421    -0.60380
N1252       N  0.07706273  0.88971030  0.69385633    -0.08900
N1253       N  0.07158307  0.86542027  0.67477263    -0.63210
N1254       N  0.05767901  0.95882715  0.72546153    -0.07890
N1255       N  0.03900115  0.48247850  0.72453750    -0.60400
Mn1256     Mn  0.07140232  0.89585671  0.75141055     1.20190
Mn1257     Mn  0.10495302  0.95309316  0.70054955     1.10090
Cl1258     Cl  0.12508266  0.92312503  0.75031458    -0.88370
C1259       C  0.01319953  0.97479082  0.74416045     0.93960
C1260       C  0.08150931  0.87178920  0.64132060     0.93760
N1261       N  0.18804375  0.53535208  0.44707161    -0.08530
N1262       N  0.18254170  0.55925648  0.42819474    -0.60650
N1263       N  0.17004161  0.96784462  0.47866738    -0.08210
N1264       N  0.15040485  0.94489518  0.47695180    -0.62770
N1265       N  0.15813152  0.98886825  0.49934705    -0.07800
N1266       N  0.12988268  0.98075755  0.51213311    -0.60620
N1267       N  0.20091196  0.01435427  0.42654724    -0.07480
N1268       N  0.20451939  0.52380030  0.39332182    -0.63130
C1269       C  0.19321003  0.55203637  0.39488262     0.93650
C1270       C  0.12537283  0.95312784  0.49790368     0.93430
N1271       N  0.26167391  0.93629416  0.49996183    -0.08710
N1272       N  0.26538181  0.91085255  0.51648886    -0.61220
N1273       N  0.26173097  0.97090071  0.42349529    -0.06830
N1274       N  0.26436457  0.95438290  0.39391852    -0.62480
N1275       N  0.28905733  0.97179931  0.44076550    -0.08740
N1276       N  0.31029225  0.95578494  0.42289426    -0.61490
N1277       N  0.23481399  0.93555098  0.48167106    -0.06470
N1278       N  0.21987525  0.91024968  0.48551916    -0.62560
Mn1279     Mn  0.21662257  0.97236769  0.45159995     1.18440
C1280       C  0.23897690  0.89521844  0.50715936     0.95730
C1281       C  0.29450888  0.94458163  0.39442288     0.96400
N1282       N  0.18873433  0.52199420  0.56502198    -0.08760
N1283       N  0.17094308  0.50384711  0.58437975    -0.65070
N1284       N  0.23890104  0.57351912  0.52845217    -0.07560
N1285       N  0.25251864  0.59959645  0.52690297    -0.65740
N1286       N  0.21159784  0.57294116  0.51194166    -0.08270
N1287       N  0.20606026  0.59916773  0.49794705    -0.65330
N1288       N  0.21619693  0.52617621  0.58108776    -0.07160
N1289       N  0.21726546  0.51161052  0.61140868    -0.66020
Mn1290     Mn  0.18504876  0.53070795  0.50628971     1.10660
C1291       C  0.18914386  0.49770346  0.61322862     0.96960
C1292       C  0.23187933  0.61528944  0.50793797     0.97030
N1293       N  0.31741554  0.52181457  0.49999918    -0.08270
N1294       N  0.34528503  0.53089625  0.48692778    -0.63650
N1295       N  0.27867771  0.99877429  0.57594283    -0.07590
N1296       N  0.28695727  0.00299438  0.60904070    -0.60380
N1297       N  0.29773776  0.98030840  0.55901567    -0.08900
N1298       N  0.32173272  0.97360708  0.58055307    -0.63210
N1299       N  0.30463087  0.54311154  0.52019200    -0.08530
N1300       N  0.32328866  0.56683994  0.52097288    -0.60400
Mn1301     Mn  0.29264784  0.97707456  0.49953684     1.20190
Mn1302     Mn  0.25941692  0.53593438  0.55123865     1.10090
Cl1303     Cl  0.23871936  0.00412914  0.50155317    -0.88370
C1304       C  0.34857164  0.55921923  0.50004831     0.93960
C1305       C  0.31361588  0.98760758  0.61203945     0.93760
N1306       N  0.19257908  0.79029741  0.44912195    -0.08530
N1307       N  0.19085225  0.81645758  0.43387979    -0.60650
N1308       N  0.17125513  0.71909734  0.47199319    -0.08210
N1309       N  0.15270809  0.69517405  0.47020210    -0.62770
N1310       N  0.15872950  0.73908276  0.49373716    -0.07800
N1311       N  0.13133015  0.72930304  0.50707044    -0.60620
N1312       N  0.20575146  0.77073637  0.42704351    -0.07480
N1313       N  0.21283463  0.78356333  0.39631687    -0.63130
C1314       C  0.20372468  0.81247116  0.40078563     0.93650
C1315       C  0.12765488  0.70179574  0.49216099     0.93430
N1316       N  0.26177117  0.68639895  0.49409837    -0.08710
N1317       N  0.26460484  0.66051746  0.50950488    -0.61220
N1318       N  0.26599225  0.72810870  0.42213354    -0.06830
N1319       N  0.27019663  0.71703259  0.38954500    -0.62480
N1320       N  0.29260928  0.72637975  0.44049715    -0.08740
N1321       N  0.31511311  0.71380642  0.42031865    -0.61490
N1322       N  0.23592643  0.68655134  0.47410747    -0.06470
N1323       N  0.22064610  0.66112767  0.47582953    -0.62560
Mn1324     Mn  0.21921012  0.72610107  0.44745390     1.18440
C1325       C  0.23880019  0.64531729  0.49784836     0.95730
C1326       C  0.30073663  0.70826684  0.38869831     0.96400
N1327       N  0.18508775  0.76788232  0.56338460    -0.08760
N1328       N  0.16646434  0.74890093  0.58093384    -0.65070
N1329       N  0.23878482  0.82212327  0.53444491    -0.07560
N1330       N  0.25267350  0.84824638  0.53499348    -0.65740
N1331       N  0.21158680  0.82252215  0.51772083    -0.08270
N1332       N  0.20643106  0.84943015  0.50567480    -0.65330
N1333       N  0.21146209  0.77261990  0.58129880    -0.07160
N1334       N  0.21064904  0.75826470  0.61155439    -0.66020
Mn1335     Mn  0.18522527  0.78061327  0.50622907     1.10660
C1336       C  0.18300169  0.74334618  0.61119225     0.96960
C1337       C  0.23216758  0.86501408  0.51704701     0.97030
N1338       N  0.31716172  0.76941922  0.50518872    -0.08270
N1339       N  0.34459632  0.77843050  0.49135685    -0.63650
N1340       N  0.27229165  0.74245338  0.57680716    -0.07590
N1341       N  0.27747821  0.74461162  0.61100615    -0.60380
N1342       N  0.29371236  0.72617420  0.56022161    -0.08900
N1343       N  0.31661363  0.72000076  0.58342861    -0.63210
N1344       N  0.30448808  0.79020607  0.52615241    -0.07890
N1345       N  0.32325174  0.81393521  0.52666248    -0.60400
Mn1346     Mn  0.29251469  0.72638292  0.49987873     1.20190
Mn1347     Mn  0.25703218  0.78254022  0.55469271     1.10090
Cl1348     Cl  0.23870325  0.75397117  0.50160276    -0.88370
C1349       C  0.34818690  0.80633979  0.50484793     0.93960
C1350       C  0.30522109  0.73139091  0.61527031     0.93760
N1351       N  0.44395846  0.66412683  0.44886095    -0.08530
N1352       N  0.44256153  0.68977082  0.43233129    -0.60650
N1353       N  0.42138545  0.59493838  0.47540373    -0.08210
N1354       N  0.40199335  0.57177986  0.47275042    -0.62770
N1355       N  0.40944406  0.61526713  0.49705833    -0.07800
N1356       N  0.38124649  0.60639261  0.50942836    -0.60620
N1357       N  0.45656898  0.64363717  0.42753521    -0.07480
N1358       N  0.46337683  0.65532213  0.39599243    -0.63130
C1359       C  0.45498881  0.68456046  0.39923584     0.93650
C1360       C  0.37684460  0.57905613  0.49398418     0.93430
N1361       N  0.01042059  0.56059700  0.49962609    -0.08710
N1362       N  0.01288648  0.53479608  0.51546015    -0.61220
N1363       N  0.01471313  0.59663164  0.42424327    -0.06830
N1364       N  0.01725352  0.58048365  0.39437917    -0.62480
N1365       N  0.04140136  0.59555890  0.44265140    -0.08740
N1366       N  0.06210981  0.57856728  0.42518953    -0.61490
N1367       N  0.98434909  0.56082090  0.47994055    -0.06470
N1368       N  0.46864673  0.53569150  0.48228321    -0.62560
Mn1369     Mn  0.46884768  0.59934823  0.45056109     1.18440
C1370       C  0.98659750  0.51985784  0.50441212     0.95730
C1371       C  0.04654726  0.56873297  0.39581321     0.96400
N1372       N  0.43938614  0.64725259  0.56544485    -0.08760
N1373       N  0.42135790  0.62912316  0.58457927    -0.65070
N1374       N  0.99192938  0.69854628  0.53078643    -0.07560
N1375       N  0.00574948  0.72459942  0.52996144    -0.65740
N1376       N  0.46431802  0.69851628  0.51499981    -0.08270
N1377       N  0.45873675  0.72501343  0.50205728    -0.65330
N1378       N  0.46639506  0.65203177  0.58221663    -0.07160
N1379       N  0.46676786  0.63812909  0.61296667    -0.66020
Mn1380     Mn  0.43738526  0.65686201  0.50699529     1.10660
C1381       C  0.43895703  0.62375536  0.61416316     0.96960
C1382       C  0.48476436  0.74074788  0.51200228     0.97030
N1383       N  0.06920282  0.64402541  0.50302246    -0.08270
N1384       N  0.09662465  0.65284864  0.48846307    -0.63650
N1385       N  0.02664361  0.62228120  0.57748851    -0.07590
N1386       N  0.03082455  0.62419380  0.61179753    -0.60380
N1387       N  0.04503768  0.60249623  0.56208375    -0.08900
N1388       N  0.06484886  0.59224328  0.58667071    -0.63210
N1389       N  0.05671217  0.66582350  0.52265071    -0.07890
N1390       N  0.07526280  0.68959581  0.52172548    -0.60400
Mn1391     Mn  0.04293605  0.60011410  0.50178537     1.20190
Mn1392     Mn  0.01060488  0.66027266  0.55301625     1.10090
Cl1393     Cl  0.99018331  0.62912714  0.50261132    -0.88370
C1394       C  0.10010868  0.68150212  0.50030862     0.93960
C1395       C  0.05447857  0.60579409  0.61783435     0.93760
N1396       N  0.43705383  0.91095946  0.44782433    -0.08530
N1397       N  0.43143051  0.93531416  0.42991638    -0.60650
N1398       N  0.41998936  0.84174509  0.47626672    -0.08210
N1399       N  0.40098622  0.81819997  0.47524655    -0.62770
N1400       N  0.40763475  0.86243891  0.49712960    -0.07800
N1401       N  0.38003433  0.85360159  0.51078286    -0.60620
N1402       N  0.45032618  0.89068299  0.42668312    -0.07480
N1403       N  0.45427915  0.90099401  0.39401807    -0.63130
C1404       C  0.44263771  0.92898371  0.39661253     0.93650
C1405       C  0.37604699  0.82587931  0.49691773     0.93430
N1406       N  0.01298241  0.81204064  0.49582558    -0.08710
N1407       N  0.01706224  0.78651481  0.51182695    -0.61220
N1408       N  0.01313897  0.85160465  0.42230432    -0.06830
N1409       N  0.01714776  0.84007960  0.38988968    -0.62480
N1410       N  0.04039269  0.85188212  0.43969593    -0.08740
N1411       N  0.06309472  0.84023803  0.41907686    -0.61490
N1412       N  0.48637434  0.81119402  0.47713785    -0.06470
N1413       N  0.47189003  0.78559137  0.48017966    -0.62560
Mn1414     Mn  0.46705659  0.84866472  0.44944503     1.18440
C1415       C  0.99116915  0.77065420  0.50170707     0.95730
C1416       C  0.04823047  0.83316929  0.38820698     0.96400
N1417       N  0.43542253  0.89305000  0.56379754    -0.08760
N1418       N  0.41736334  0.87399769  0.58186703    -0.65070
N1419       N  0.98651450  0.94704805  0.53199199    -0.07560
N1420       N  0.99993317  0.97329510  0.53218486    -0.65740
N1421       N  0.45951079  0.94682164  0.51483299    -0.08270
N1422       N  0.45405183  0.97354608  0.50215234    -0.65330
N1423       N  0.46225592  0.89774048  0.58087357    -0.07160
N1424       N  0.46237573  0.88319730  0.61102048    -0.66020
Mn1425     Mn  0.43345709  0.90426888  0.50620534     1.10660
C1426       C  0.43469369  0.86832507  0.61145439     0.96960
C1427       C  0.47949925  0.98956839  0.51366286     0.97030
N1428       N  0.06594257  0.89702584  0.50274008    -0.08270
N1429       N  0.09367459  0.90621153  0.48992979    -0.63650
N1430       N  0.02566495  0.87028937  0.57645894    -0.07590
N1431       N  0.03363620  0.87390753  0.60981788    -0.60380
N1432       N  0.04627537  0.85381674  0.55874893    -0.08900
N1433       N  0.07096718  0.84860500  0.57991981    -0.63210
N1434       N  0.05302177  0.91756747  0.52385524    -0.07890
N1435       N  0.07174799  0.94127206  0.52547549    -0.60400
Mn1436     Mn  0.04254067  0.85305600  0.49894840     1.20190
Mn1437     Mn  0.00675070  0.90872146  0.55324581     1.10090
Cl1438     Cl  0.98787797  0.87878640  0.50101739    -0.88370
C1439       C  0.09698859  0.93396553  0.50411309     0.93960
C1440       C  0.06178915  0.86080689  0.61208424     0.93760
N1441       N  0.93096757  0.21167940  0.31503735    -0.08530
N1442       N  0.95442272  0.21182954  0.33905082    -0.60650
N1443       N  0.94122645  0.15119252  0.27428092    -0.08210
N1444       N  0.96040625  0.12787229  0.27645053    -0.62770
N1445       N  0.95506604  0.17214943  0.25559373    -0.07800
N1446       N  0.98433067  0.16385513  0.24587001    -0.60620
N1447       N  0.90686305  0.19737635  0.32877775    -0.07480
N1448       N  0.91090494  0.19197210  0.36253575    -0.63130
C1449       C  0.94055857  0.20006199  0.36905455     0.93650
C1450       C  0.98716403  0.13574897  0.25832151     0.93430
N1451       N  0.84971608  0.11993533  0.25549875    -0.08710
N1452       N  0.84725550  0.09401412  0.23856238    -0.61220
N1453       N  0.84695215  0.16572411  0.32778450    -0.06830
N1454       N  0.84392282  0.17878470  0.35954188    -0.62480
N1455       N  0.82026021  0.16768698  0.31001369    -0.08740
N1456       N  0.79870854  0.18244609  0.32925319    -0.61490
N1457       N  0.87687692  0.12100814  0.27230009    -0.06470
N1458       N  0.89376047  0.09696130  0.26678197    -0.62560
Mn1459     Mn  0.89298827  0.15831006  0.30092682     1.18440
C1460       C  0.87542936  0.08039593  0.24540997     0.95730
C1461       C  0.81389856  0.18912393  0.36006613     0.96400
N1462       N  0.92791345  0.21841783  0.19384898    -0.08760
N1463       N  0.94981999  0.23035753  0.17262113    -0.65070
N1464       N  0.87221957  0.25651001  0.23486168    -0.07560
N1465       N  0.85863038  0.28274471  0.23689918    -0.65740
N1466       N  0.89906944  0.25630248  0.25320211    -0.08270
N1467       N  0.90442961  0.28311981  0.26688180    -0.65330
N1468       N  0.90052305  0.21710083  0.17664232    -0.07160
N1469       N  0.90360075  0.22736523  0.14407962    -0.66020
Mn1470     Mn  0.92971886  0.21546902  0.25411336     1.10660
C1471       C  0.93413375  0.23558214  0.14171924     0.96960
C1472       C  0.87848934  0.29898246  0.25722099     0.97030
N1473       N  0.79376344  0.20354666  0.24689207    -0.08270
N1474       N  0.76569291  0.21240276  0.25992979    -0.63650
N1475       N  0.83765487  0.17756032  0.17458875    -0.07590
N1476       N  0.83968805  0.16814761  0.14075078    -0.60380
N1477       N  0.82436612  0.15697653  0.19424082    -0.08900
N1478       N  0.81704837  0.13346226  0.17477285    -0.63210
N1479       N  0.80681014  0.22477899  0.22826790    -0.07890
N1480       N  0.78810615  0.24846594  0.22811270    -0.60400
Mn1481     Mn  0.82068001  0.16113332  0.25204678     1.20190
Mn1482     Mn  0.85412395  0.21913221  0.20253175     1.10090
Cl1483     Cl  0.87483203  0.18858406  0.25136014    -0.88370
C1484       C  0.76242515  0.24061444  0.24794081     0.93960
C1485       C  0.82696958  0.14035293  0.14164175     0.93760
N1486       N  0.90512633  0.01014670  0.25887427    -0.08530
N1487       N  0.90827058  0.03518532  0.24126021    -0.60650
N1488       N  0.90483978  0.46769271  0.32960001    -0.08210
N1489       N  0.90601786  0.45905939  0.36292654    -0.62770
N1490       N  0.93199511  0.46244580  0.31303632    -0.07800
N1491       N  0.95186992  0.44880486  0.33471657    -0.60620
N1492       N  0.87702008  0.00963927  0.27422562    -0.07480
N1493       N  0.86027429  0.03329008  0.26724366    -0.63130
C1494       C  0.87967269  0.04889304  0.24620642     0.93650
C1495       C  0.93523459  0.44747672  0.36600512     0.93430
N1496       N  0.82317456  0.41785136  0.31158431    -0.08710
N1497       N  0.79896018  0.41665914  0.33483514    -0.61220
N1498       N  0.81331278  0.47827067  0.27306421    -0.06830
N1499       N  0.79482896  0.00212376  0.27331113    -0.62480
N1500       N  0.80077349  0.45715187  0.25290620    -0.08740
N1501       N  0.77332115  0.46610841  0.23951791    -0.61490
N1502       N  0.84631116  0.43283097  0.32656038    -0.06470
N1503       N  0.84095501  0.43768414  0.36047070    -0.62560
Mn1504     Mn  0.86007305  0.47261443  0.30120320     1.18440
C1505       C  0.81123446  0.42892117  0.36544958     0.95730
C1506       C  0.76996651  0.99440001  0.25231334     0.96400
N1507       N  0.95935216  0.42495045  0.24756155    -0.08760
N1508       N  0.98680544  0.41463125  0.25976936    -0.65070
N1509       N  0.91578951  0.45297286  0.17708183    -0.07560
N1510       N  0.91006595  0.46404530  0.14516611    -0.65740
N1511       N  0.92896277  0.47347337  0.19738601    -0.08270
N1512       N  0.93190637  0.49853816  0.18003232    -0.65330
N1513       N  0.94553733  0.40430241  0.22815459    -0.07160
N1514       N  0.96239488  0.37958228  0.22729434    -0.66020
Mn1515     Mn  0.93347331  0.46833444  0.25470355     1.10660
C1516       C  0.98790039  0.38589593  0.24746182     0.96960
C1517       C  0.92006471  0.49288076  0.14720889     0.97030
N1518       N  0.82824394  0.40994022  0.19143653    -0.08270
N1519       N  0.80804784  0.39530278  0.17056797    -0.63650
N1520       N  0.88234045  0.37232802  0.23195710    -0.07590
N1521       N  0.89664520  0.34653301  0.23509775    -0.60380
N1522       N  0.85539378  0.37295898  0.25047940    -0.08900
N1523       N  0.85057751  0.34703378  0.26562143    -0.63210
N1524       N  0.85585042  0.41212961  0.17453648    -0.07890
N1525       N  0.85465759  0.39992570  0.14236212    -0.60400
Mn1526     Mn  0.82541637  0.41372568  0.25132668     1.20190
Mn1527     Mn  0.90029586  0.41042101  0.20181472     1.10090
Cl1528     Cl  0.87969834  0.44123532  0.25193228    -0.88370
C1529       C  0.82501557  0.38946035  0.14012881     0.93960
C1530       C  0.87698993  0.33115302  0.25654747     0.93760
N1531       N  0.56352705  0.10334698  0.27267008    -0.08530
N1532       N  0.54399563  0.12641874  0.27568300    -0.60650
N1533       N  0.57425699  0.04306624  0.31190249    -0.08210
N1534       N  0.55070070  0.04104497  0.33592488    -0.62770
N1535       N  0.59717585  0.05869415  0.32627303    -0.07800
N1536       N  0.59233627  0.06365868  0.36027848    -0.60620
N1537       N  0.55009235  0.08187029  0.25379689    -0.07480
N1538       N  0.52070355  0.08965341  0.24482809    -0.63130
C1539       C  0.51741608  0.11791633  0.25798418     0.93650
C1540       C  0.56321177  0.05372760  0.36623449     0.93430
N1541       N  0.63339013  0.49729454  0.23220687    -0.08710
N1542       N  0.64720377  0.47130953  0.23560879    -0.61220
N1543       N  0.57803173  0.03370603  0.19131272    -0.06830
N1544       N  0.55710201  0.01930207  0.17097405    -0.62480
N1545       N  0.60559006  0.03491734  0.17396371    -0.08740
N1546       N  0.60352155  0.02219549  0.14207743    -0.61490
N1547       N  0.60634576  0.49834620  0.25066650    -0.06470
N1548       N  0.60108609  0.47266413  0.26608179    -0.62560
Mn1549     Mn  0.57580841  0.03858043  0.25145213     1.18440
C1550       C  0.62717296  0.45642505  0.25718478     0.95730
C1551       C  0.57346036  0.01249517  0.14034959     0.96400
N1552       N  0.65608196  0.09240938  0.32788019    -0.08760
N1553       N  0.65713630  0.08304106  0.36096419    -0.65070
N1554       N  0.65578328  0.13486617  0.25680865    -0.07560
N1555       N  0.65931931  0.16032499  0.24021026    -0.65740
N1556       N  0.62778171  0.13429766  0.27230885    -0.08270
N1557       N  0.61135558  0.15829485  0.26641031    -0.65330
N1558       N  0.68304110  0.08682906  0.31102685    -0.07160
N1559       N  0.70250019  0.07208607  0.33231334    -0.66020
Mn1560     Mn  0.61101199  0.09769283  0.29978988     1.10660
C1561       C  0.68590412  0.07044296  0.36369967     0.96960
C1562       C  0.63095457  0.17419867  0.24599739     0.97030
N1563       N  0.66641442  0.07697713  0.17407289    -0.08270
N1564       N  0.66196605  0.08720856  0.14136641    -0.63650
N1565       N  0.71083801  0.05105295  0.24516074    -0.07590
N1566       N  0.73864228  0.04240361  0.25804359    -0.60380
N1567       N  0.69835716  0.02974008  0.22557920    -0.08900
N1568       N  0.71722111  0.50615103  0.22466320    -0.63210
N1569       N  0.67901185  0.09796603  0.19426359    -0.07890
N1570       N  0.68267429  0.12256218  0.17607798    -0.60400
Mn1571     Mn  0.65131585  0.03453761  0.20029285     1.20190
Mn1572     Mn  0.68398199  0.09330434  0.25225341     1.10090
Cl1573     Cl  0.63035369  0.06599806  0.25042240    -0.88370
C1574       C  0.67171219  0.11616183  0.14297206     0.93960
C1575       C  0.74235267  0.01422033  0.24496912     0.93760
N1576       N  0.69077362  0.27726621  0.27634735    -0.08530
N1577       N  0.70915602  0.25330934  0.27616545    -0.60650
N1578       N  0.67956248  0.33766982  0.31670084    -0.08210
N1579       N  0.70260157  0.33937890  0.34104642    -0.62770
N1580       N  0.65575567  0.32302966  0.33050544    -0.07800
N1581       N  0.65955588  0.31861076  0.36450288    -0.60620
N1582       N  0.70390976  0.29813386  0.25680873    -0.07480
N1583       N  0.73171397  0.28889060  0.24354842    -0.63130
C1584       C  0.73464554  0.26069163  0.25566298     0.93650
C1585       C  0.68880075  0.32794967  0.37119227     0.93430
N1586       N  0.62204235  0.38185489  0.23614859    -0.08710
N1587       N  0.60859604  0.40817163  0.23728324    -0.61220
N1588       N  0.67826026  0.34766241  0.19665537    -0.06830
N1589       N  0.69814683  0.36557912  0.17986686    -0.62480
N1590       N  0.65179133  0.34564783  0.17792329    -0.08740
N1591       N  0.65369112  0.36164674  0.14867767    -0.61490
N1592       N  0.64820695  0.38178339  0.25561108    -0.06470
N1593       N  0.65340967  0.40857209  0.26921793    -0.62560
Mn1594     Mn  0.67894024  0.34173721  0.25621714     1.18440
C1595       C  0.62797263  0.42440513  0.25832008     0.95730
C1596       C  0.68215686  0.37482901  0.15067020     0.96400
N1597       N  0.59597580  0.29073134  0.32897365    -0.08760
N1598       N  0.59218177  0.30408024  0.36042038    -0.65070
N1599       N  0.60043026  0.24436059  0.25799250    -0.07560
N1600       N  0.59858045  0.21895332  0.23998629    -0.65740
N1601       N  0.62739065  0.24552741  0.27508073    -0.08270
N1602       N  0.64471994  0.22181152  0.26888942    -0.65330
N1603       N  0.56963337  0.29235878  0.31045494    -0.07160
N1604       N  0.54751716  0.30707147  0.32889214    -0.66020
Mn1605     Mn  0.64265129  0.28353323  0.30322018     1.10660
C1606       C  0.56204872  0.31413178  0.35999301     0.96960
C1607       C  0.62684074  0.20560877  0.24653493     0.97030
N1608       N  0.59325944  0.29996394  0.17609423    -0.08270
N1609       N  0.59968192  0.28843488  0.14384065    -0.63650
N1610       N  0.54529520  0.32761497  0.24556122    -0.07590
N1611       N  0.51731192  0.33756074  0.25775572    -0.60380
N1612       N  0.55957241  0.34852637  0.22769058    -0.08900
N1613       N  0.54246367  0.37308625  0.22778764    -0.63210
N1614       N  0.58014077  0.27939860  0.19582532    -0.07890
N1615       N  0.57836723  0.25395391  0.17813013    -0.60400
Mn1616     Mn  0.60623982  0.34365504  0.20327619     1.20190
Mn1617     Mn  0.57200774  0.28518768  0.25270485     1.10090
Cl1618     Cl  0.62527884  0.31351308  0.25334793    -0.88370
C1619       C  0.59061803  0.25923678  0.14546883     0.93960
C1620       C  0.51630953  0.36635496  0.24696177     0.93760
N1621       N  0.81360849  0.10094900  0.06024646    -0.08530
N1622       N  0.83366446  0.11716038  0.07973659    -0.60650
N1623       N  0.76224300  0.04758842  0.02926524    -0.08210
N1624       N  0.74936949  0.02116685  0.03034491    -0.62770
N1625       N  0.78927008  0.04748940  0.01144271    -0.07800
N1626       N  0.79525857  0.02035789  0.99913434    -0.60620
N1627       N  0.78685211  0.09704223  0.07799796    -0.07480
N1628       N  0.78840057  0.10946638  0.10998093    -0.63130
C1629       C  0.81743278  0.12192558  0.11085979     0.93650
C1630       C  0.76999140  0.50450362  0.01158069     0.93430
N1631       N  0.68238170  0.09654585  0.00254005    -0.08710
N1632       N  0.65470306  0.08698708  0.99054401    -0.61220
N1633       N  0.72487234  0.12662911  0.07509095    -0.06830
N1634       N  0.71849570  0.12258001  0.10883945    -0.62480
N1635       N  0.70133428  0.13964332  0.05889586    -0.08740
N1636       N  0.67624176  0.14020294  0.08121593    -0.61490
N1637       N  0.69543709  0.07682853  0.02354586    -0.06470
N1638       N  0.67680937  0.05309455  0.02567307    -0.62560
Mn1639     Mn  0.74210086  0.08651947  0.05153819     1.18440
C1640       C  0.65154559  0.05976400  0.00488195     0.95730
C1641       C  0.68815741  0.13003786  0.11268128     0.96400
N1642       N  0.81129155  0.08194760  0.94430171    -0.08760
N1643       N  0.81894495  0.05753226  0.92627448    -0.65070
N1644       N  0.82333761  0.15281352  0.97328179    -0.07560
N1645       N  0.83871492  0.17842049  0.97401003    -0.65740
N1646       N  0.83733251  0.13353405  0.99362092    -0.08270
N1647       N  0.86294281  0.14552980  0.00834037    -0.65330
N1648       N  0.79704416  0.10088667  0.92336598    -0.07160
N1649       N  0.79451795  0.08954020  0.89057220    -0.66020
Mn1650     Mn  0.81452679  0.09018680  0.00242536     1.10660
C1651       C  0.80807188  0.06233373  0.89298669     0.96960
C1652       C  0.86305704  0.17386237  0.99653480     0.97030
N1653       N  0.73303196  0.18164840  0.99412544    -0.08270
N1654       N  0.72962374  0.20772497  0.01032974    -0.63650
N1655       N  0.73344493  0.13805277  0.92004683    -0.07590
N1656       N  0.73108989  0.14913617  0.88782095    -0.60380
N1657       N  0.70623464  0.14068708  0.93790275    -0.08900
N1658       N  0.68530069  0.15443398  0.91760065    -0.63210
N1659       N  0.75878450  0.18183507  0.97354025    -0.07890
N1660       N  0.77345944  0.20746243  0.97550874    -0.60400
Mn1661     Mn  0.70448384  0.14032900  0.99818630     1.20190
Mn1662     Mn  0.77838980  0.14312773  0.94648782     1.10090
Cl1663     Cl  0.75958330  0.11474424  0.99910027    -0.88370
C1664       C  0.75518695  0.22319797  0.99831393     0.93960
C1665       C  0.70125846  0.15938113  0.88652384     0.93760
N1666       N  0.81279353  0.34585413  0.06210891    -0.08530
N1667       N  0.83233050  0.36270335  0.08127900    -0.60650
N1668       N  0.75783624  0.29574253  0.02913040    -0.08210
N1669       N  0.74296317  0.27018263  0.02820485    -0.62770
N1670       N  0.78519018  0.29477335  0.01208253    -0.07800
N1671       N  0.78939797  0.26794331  0.99812365    -0.60620
N1672       N  0.78594499  0.34209866  0.07981282    -0.07480
N1673       N  0.78701983  0.35547252  0.11136393    -0.63130
C1674       C  0.81562584  0.36842028  0.11190835     0.93650
C1675       C  0.76290075  0.25315371  0.00881300     0.93430
N1676       N  0.68069671  0.35066668  0.00600435    -0.08710
N1677       N  0.65172134  0.34290586  0.99521647    -0.61220
N1678       N  0.72828198  0.37529185  0.07757141    -0.06830
N1679       N  0.72529808  0.37341927  0.11207357    -0.62480
N1680       N  0.70661132  0.39213643  0.06376403    -0.08740
N1681       N  0.68543470  0.39893244  0.08950670    -0.61490
N1682       N  0.69339564  0.32913348  0.02463598    -0.06470
N1683       N  0.67359524  0.30614842  0.02584434    -0.62560
Mn1684     Mn  0.74091684  0.33499931  0.05258591     1.18440
C1685       C  0.64772077  0.31469912  0.00709095     0.95730
C1686       C  0.69850185  0.38732889  0.11979787     0.96400
N1687       N  0.80671683  0.32807824  0.94672130    -0.08760
N1688       N  0.80886926  0.30215454  0.92997349    -0.65070
N1689       N  0.82868427  0.39811381  0.97340041    -0.07560
N1690       N  0.84693216  0.42210744  0.97179275    -0.65740
N1691       N  0.84102628  0.37829775  0.99437959    -0.08270
N1692       N  0.86841558  0.38854396  0.00738755    -0.65330
N1693       N  0.79414097  0.34800113  0.92583437    -0.07160
N1694       N  0.78819347  0.33563478  0.89413939    -0.66020
Mn1695     Mn  0.81330006  0.33618680  0.00404596     1.10660
C1696       C  0.79723450  0.30662577  0.89696719     0.96960
C1697       C  0.87186467  0.41606461  0.99298050     0.97030
N1698       N  0.74014628  0.43272084  0.99987249    -0.08270
N1699       N  0.73748254  0.45908252  0.01540200    -0.63650
N1700       N  0.73567618  0.39434491  0.92439659    -0.07590
N1701       N  0.73376010  0.40950295  0.89447700    -0.60380
N1702       N  0.70895844  0.39670294  0.94334588    -0.08900
N1703       N  0.68885351  0.41370055  0.92599664    -0.63210
N1704       N  0.76599145  0.43195789  0.97928012    -0.07890
N1705       N  0.78141390  0.45731080  0.98072195    -0.60400
Mn1706     Mn  0.70765179  0.39359395  0.00313857     1.20190
Mn1707     Mn  0.78149044  0.39265497  0.94949155     1.10090
Cl1708     Cl  0.76055401  0.36422865  0.00170775    -0.88370
C1709       C  0.76347448  0.47379103  0.00326387     0.93960
C1710       C  0.70490239  0.42209561  0.89621938     0.93760
N1711       N  0.56004917  0.47002086  0.06119462    -0.08530
N1712       N  0.57980288  0.48586692  0.08130040    -0.60650
N1713       N  0.50519906  0.42377493  0.01933537    -0.08210
N1714       N  0.98786150  0.40061548  0.01079381    -0.62770
N1715       N  0.53270035  0.42340062  0.00276993    -0.07800
N1716       N  0.53489688  0.39890351  0.98285873    -0.60620
N1717       N  0.53265744  0.46708690  0.07805290    -0.07480
N1718       N  0.53347629  0.48042377  0.10981906    -0.63130
C1719       C  0.56283811  0.49207252  0.11157371     0.93650
C1720       C  0.50627411  0.38530070  0.98772973     0.93430
N1721       N  0.92920572  0.47548882  0.00182593    -0.08710
N1722       N  0.90164352  0.46582217  0.98851054    -0.61220
N1723       N  0.97200266  0.99750963  0.07805572    -0.06830
N1724       N  0.96562608  0.99226696  0.11140502    -0.62480
N1725       N  0.95078626  0.01476412  0.06383173    -0.08740
N1726       N  0.92708986  0.01897600  0.08744249    -0.61490
N1727       N  0.94213317  0.45436256  0.02084054    -0.06470
N1728       N  0.92415558  0.43021535  0.02050637    -0.62560
Mn1729     Mn  0.98822966  0.46017708  0.04925271     1.18440
C1730       C  0.89894826  0.43725636  0.00023833     0.95730
C1731       C  0.93776393  0.00516158  0.11733491     0.96400
N1732       N  0.55954887  0.46205478  0.94400311    -0.08760
N1733       N  0.56627619  0.43853219  0.92407196    -0.65070
N1734       N  0.57779484  0.02770760  0.98096614    -0.07560
N1735       N  0.59775478  0.05031026  0.98032056    -0.65740
N1736       N  0.58974898  0.00579456  0.99903601    -0.08270
N1737       N  0.61839826  0.01301857  0.01118548    -0.65330
N1738       N  0.54703672  0.98324285  0.92479936    -0.07160
N1739       N  0.54512606  0.47409068  0.89077095    -0.66020
Mn1740     Mn  0.56195673  0.46437196  0.00230883     1.10660
C1741       C  0.55697914  0.44582202  0.89107605     0.96960
C1742       C  0.62297451  0.04102583  0.99922595     0.97030
N1743       N  0.98569849  0.06063343  0.00717000    -0.08270
N1744       N  0.97978290  0.08672629  0.02259647    -0.63650
N1745       N  0.98614640  0.02810052  0.92791365    -0.07590
N1746       N  0.98395640  0.04410947  0.89869614    -0.60380
N1747       N  0.95858550  0.02741160  0.94531553    -0.08900
N1748       N  0.93760715  0.04324019  0.92779356    -0.63210
N1749       N  0.01328681  0.06164860  0.98968169    -0.07890
N1750       N  0.52668878  0.08785117  0.99389394    -0.60400
Mn1751     Mn  0.95467349  0.02007275  0.00402378     1.20190
Mn1752     Mn  0.53130594  0.02515496  0.95472341     1.10090
Cl1753     Cl  0.00876171  0.99252153  0.00191433    -0.88370
C1754       C  0.00598544  0.10314688  0.01487478     0.93960
C1755       C  0.95386302  0.05406868  0.89938241     0.93760
N1756       N  0.94980669  0.27112868  0.05992700    -0.08530
N1757       N  0.92947118  0.25724143  0.08107167    -0.60650
N1758       N  0.00497037  0.31498498  0.01595240    -0.08210
N1759       N  0.52166856  0.33843748  0.00789797    -0.62770
N1760       N  0.97704870  0.31499451  0.00085568    -0.07800
N1761       N  0.97388956  0.33969403  0.98254424    -0.60620
N1762       N  0.97703864  0.27502498  0.07637636    -0.07480
N1763       N  0.97558581  0.26411826  0.10895538    -0.63130
C1764       C  0.94594747  0.25312437  0.11155527     0.93650
C1765       C  0.00241887  0.35369167  0.98683181     0.93430
N1766       N  0.58327744  0.26201093  0.00253357    -0.08710
N1767       N  0.61346332  0.26865385  0.99474791    -0.61220
N1768       N  0.53804734  0.24557791  0.07819888    -0.06830
N1769       N  0.54482611  0.25498362  0.11029559    -0.62480
N1770       N  0.56010561  0.22800507  0.06485845    -0.08740
N1771       N  0.58471292  0.22818952  0.08730349    -0.61490
N1772       N  0.56952410  0.28486225  0.01894361    -0.06470
N1773       N  0.58955667  0.30756327  0.02122558    -0.62560
Mn1774     Mn  0.52210434  0.28068617  0.04721036     1.18440
C1775       C  0.61688619  0.29755305  0.00573959     0.95730
C1776       C  0.57386682  0.24495917  0.11577803     0.96400
N1777       N  0.95105220  0.27316494  0.94342827    -0.08760
N1778       N  0.94227959  0.29500390  0.92292797    -0.65070
N1779       N  0.93620406  0.20844880  0.98199425    -0.07560
N1780       N  0.91822101  0.18459963  0.98092389    -0.65740
N1781       N  0.92179908  0.23057161  0.99848578    -0.08270
N1782       N  0.89262444  0.22224187  0.00823555    -0.65330
N1783       N  0.96462257  0.25152375  0.92467771    -0.07160
N1784       N  0.96518405  0.25865308  0.89023266    -0.66020
Mn1785     Mn  0.94834251  0.27343661  0.00130308     1.10660
C1786       C  0.95138989  0.28614928  0.88992585     0.96960
C1787       C  0.89128383  0.19312550  0.99756635     0.97030
N1788       N  0.52611360  0.17810984  0.00893188    -0.08270
N1789       N  0.53193987  0.15225376  0.02379594    -0.63650
N1790       N  0.52666701  0.20828308  0.92874209    -0.07590
N1791       N  0.52800387  0.19022965  0.90052104    -0.60380
N1792       N  0.55381917  0.20808307  0.94643466    -0.08900
N1793       N  0.57354469  0.18936402  0.93000556    -0.63210
N1794       N  0.49924898  0.17645846  0.99075622    -0.07890
N1795       N  0.98603408  0.15020605  0.99417463    -0.60400
Mn1796     Mn  0.55696022  0.21849227  0.00525730     1.20190
Mn1797     Mn  0.98173155  0.21153227  0.95556957     1.10090
Cl1798     Cl  0.50262952  0.24605344  0.00167970    -0.88370
C1799       C  0.50619910  0.13543930  0.01517078     0.93960
C1800       C  0.55682625  0.17776583  0.90219568     0.93760
N1801       N  0.92936583  0.07199093  0.81298188    -0.08530
N1802       N  0.95022350  0.07851550  0.83862535    -0.60650
N1803       N  0.94136211  0.01071447  0.77140526    -0.08210
N1804       N  0.95982760  0.48690456  0.77117053    -0.62770
N1805       N  0.95464281  0.03200495  0.75269707    -0.07800
N1806       N  0.98265104  0.02306643  0.73972468    -0.60620
N1807       N  0.90772654  0.05443702  0.82647770    -0.07480
N1808       N  0.91085566  0.05127943  0.86074535    -0.63130
C1809       C  0.93740253  0.06561602  0.86845189     0.93650
C1810       C  0.98545816  0.49471262  0.75133932     0.93430
N1811       N  0.85077666  0.47797781  0.75386317    -0.08710
N1812       N  0.84860004  0.45274699  0.73535412    -0.61220
N1813       N  0.84825254  0.02100775  0.82687023    -0.06830
N1814       N  0.84596190  0.03090810  0.86010334    -0.62480
N1815       N  0.82171695  0.02591993  0.80974909    -0.08740
N1816       N  0.80125028  0.04054251  0.83085952    -0.61490
N1817       N  0.87829680  0.47885490  0.76980643    -0.06470
N1818       N  0.89561589  0.45539017  0.76236712    -0.62560
Mn1819     Mn  0.89400927  0.01575822  0.79883215     1.18440
C1820       C  0.87723494  0.43931964  0.74049653     0.95730
C1821       C  0.81675726  0.04293092  0.86245999     0.96400
N1822       N  0.92865569  0.08001593  0.69178550    -0.08760
N1823       N  0.94797204  0.09645482  0.67182173    -0.65070
N1824       N  0.87364619  0.11647660  0.73332367    -0.07560
N1825       N  0.85987143  0.14265508  0.73611150    -0.65740
N1826       N  0.90002691  0.11604385  0.75223484    -0.08270
N1827       N  0.90505516  0.14234094  0.76727053    -0.65330
N1828       N  0.90155104  0.07642777  0.67457142    -0.07160
N1829       N  0.90247650  0.08907233  0.64313692    -0.66020
Mn1830     Mn  0.92989930  0.07568587  0.75231082     1.10660
C1831       C  0.93114823  0.10166595  0.64156619     0.96960
C1832       C  0.87930239  0.15836517  0.75775074     0.97030
N1833       N  0.79656459  0.06296148  0.74592867    -0.08270
N1834       N  0.76874057  0.07311768  0.75822624    -0.63650
N1835       N  0.84122793  0.03565264  0.67469429    -0.07590
N1836       N  0.84511151  0.02566794  0.64141644    -0.60380
N1837       N  0.82792968  0.01491736  0.69390324    -0.08900
N1838       N  0.82306569  0.99069378  0.67448758    -0.63210
N1839       N  0.81095556  0.08379799  0.72797759    -0.07890
N1840       N  0.79417353  0.10849946  0.72821481    -0.60400
Mn1841     Mn  0.82231980  0.01976223  0.75131103     1.20190
Mn1842     Mn  0.85650572  0.07798707  0.70164522     1.10090
Cl1843     Cl  0.87610189  0.04752788  0.75049038    -0.88370
C1844       C  0.76809526  0.10193439  0.74751817     0.93960
C1845       C  0.83369836  0.99726300  0.64139407     0.93760
N1846       N  0.82615846  0.27960664  0.81372879    -0.08530
N1847       N  0.80226128  0.27796615  0.83744740    -0.60650
N1848       N  0.81557412  0.33917933  0.77254765    -0.08210
N1849       N  0.79590171  0.36225480  0.77531468    -0.62770
N1850       N  0.80193717  0.31726494  0.75460663    -0.07800
N1851       N  0.77230532  0.32480539  0.74606880    -0.60620
N1852       N  0.84860937  0.29609017  0.82762326    -0.07480
N1853       N  0.84292927  0.30259976  0.86111146    -0.63130
C1854       C  0.81407935  0.29193964  0.86727140     0.93650
C1855       C  0.76895332  0.35335689  0.75842975     0.93430
N1856       N  0.90786305  0.36916806  0.75257609    -0.08710
N1857       N  0.91022123  0.39403511  0.73435848    -0.61220
N1858       N  0.90979927  0.32642965  0.82540299    -0.06830
N1859       N  0.91187840  0.31539267  0.85768942    -0.62480
N1860       N  0.93651254  0.32184252  0.80760472    -0.08740
N1861       N  0.95683324  0.30657215  0.82722618    -0.61490
N1862       N  0.88037104  0.36887592  0.76924527    -0.06470
N1863       N  0.86322644  0.39228644  0.76243071    -0.62560
Mn1864     Mn  0.86379502  0.33319370  0.79869406     1.18440
C1865       C  0.88168295  0.40775613  0.74032514     0.95730
C1866       C  0.94099782  0.30296327  0.85858293     0.96400
N1867       N  0.83048847  0.26695466  0.69415704    -0.08760
N1868       N  0.80830079  0.25260320  0.67608922    -0.65070
N1869       N  0.88586818  0.23180106  0.73440000    -0.07560
N1870       N  0.89897426  0.20544901  0.73675133    -0.65740
N1871       N  0.85899741  0.23318065  0.75331894    -0.08270
N1872       N  0.85316899  0.20714344  0.76775301    -0.65330
N1873       N  0.85746381  0.26602117  0.67548544    -0.07160
N1874       N  0.85366587  0.25122274  0.64491007    -0.66020
Mn1875     Mn  0.82817043  0.27372084  0.75358735     1.10660
C1876       C  0.82315952  0.24240923  0.64597904     0.96960
C1877       C  0.87878004  0.19049024  0.75792391     0.97030
N1878       N  0.96372463  0.28529756  0.74389899    -0.08270
N1879       N  0.99163583  0.27704740  0.75684683    -0.63650
N1880       N  0.91948347  0.30943147  0.67192951    -0.07590
N1881       N  0.91561828  0.31958480  0.63893452    -0.60380
N1882       N  0.93312618  0.33008891  0.69186557    -0.08900
N1883       N  0.93878689  0.35412126  0.67358190    -0.63210
N1884       N  0.95110302  0.26349916  0.72529170    -0.07890
N1885       N  0.96991260  0.23988034  0.72520546    -0.60400
Mn1886     Mn  0.93673794  0.32742728  0.74948340     1.20190
Mn1887     Mn  0.90382968  0.26765574  0.70038056     1.10090
Cl1888     Cl  0.88257307  0.30036983  0.74938708    -0.88370
C1889       C  0.99522904  0.24851768  0.74492727     0.93960
C1890       C  0.92765271  0.34778208  0.64083061     0.93760
N1891       N  0.57929846  0.15444819  0.81599826    -0.08530
N1892       N  0.55878996  0.14948649  0.84270669    -0.60650
N1893       N  0.56696004  0.21394811  0.77298862    -0.08210
N1894       N  0.54853537  0.23780458  0.77207414    -0.62770
N1895       N  0.55371130  0.19171130  0.75529679    -0.07800
N1896       N  0.52584584  0.20001135  0.74229084    -0.60620
N1897       N  0.60135716  0.17222025  0.82805921    -0.07480
N1898       N  0.59904563  0.17687875  0.86235282    -0.63130
C1899       C  0.57251096  0.16339933  0.87168291     0.93650
C1900       C  0.52296339  0.22897943  0.75284827     0.93430
N1901       N  0.65782523  0.24561660  0.75253048    -0.08710
N1902       N  0.66039976  0.27087412  0.73510707    -0.61220
N1903       N  0.66020022  0.20403716  0.82605005    -0.06830
N1904       N  0.66201353  0.19213246  0.85797228    -0.62480
N1905       N  0.68671311  0.19946117  0.80789576    -0.08740
N1906       N  0.70672768  0.18370719  0.82708767    -0.61490
N1907       N  0.63044616  0.24524994  0.76942048    -0.06470
N1908       N  0.61353029  0.26896817  0.76357654    -0.62560
Mn1909     Mn  0.61460064  0.20951258  0.79924356     1.18440
C1910       C  0.63202556  0.28471731  0.74182589     0.95730
C1911       C  0.69080681  0.17935660  0.85825687     0.96400
N1912       N  0.57929065  0.14046694  0.69639301    -0.08760
N1913       N  0.55782711  0.12421492  0.67948526    -0.65070
N1914       N  0.63491871  0.10652911  0.73507017    -0.07560
N1915       N  0.64788004  0.08005137  0.73630965    -0.65740
N1916       N  0.60878245  0.10777629  0.75506875    -0.08270
N1917       N  0.60305901  0.08161901  0.76916673    -0.65330
N1918       N  0.60572381  0.14084719  0.67692354    -0.07160
N1919       N  0.60229796  0.12514905  0.64700327    -0.66020
Mn1920     Mn  0.57878234  0.14813361  0.75565321     1.10660
C1921       C  0.57267749  0.11416437  0.64922854     0.96960
C1922       C  0.62820671  0.06496201  0.75797307     0.97030
N1923       N  0.71169258  0.16027329  0.74421528    -0.08270
N1924       N  0.73907425  0.15053506  0.75710348    -0.63650
N1925       N  0.66725891  0.18480259  0.67235471    -0.07590
N1926       N  0.66319409  0.19483382  0.63928098    -0.60380
N1927       N  0.68142721  0.20543337  0.69187775    -0.08900
N1928       N  0.68704480  0.22931308  0.67331039    -0.63210
N1929       N  0.69762132  0.13878851  0.72646231    -0.07890
N1930       N  0.71423027  0.11400402  0.72753428    -0.60400
Mn1931     Mn  0.68618702  0.20350872  0.74943373     1.20190
Mn1932     Mn  0.65167461  0.14303050  0.70133217     1.10090
Cl1933     Cl  0.63249979  0.17610100  0.75074173    -0.88370
C1934       C  0.73981547  0.12127674  0.74707850     0.93960
C1935       C  0.67549658  0.22297472  0.64075401     0.93760
N1936       N  0.68015949  0.44749219  0.81240942    -0.08530
N1937       N  0.70335884  0.44870593  0.83653582    -0.60650
N1938       N  0.69187532  0.38645276  0.77350868    -0.08210
N1939       N  0.71150421  0.36349407  0.77663676    -0.62770
N1940       N  0.70549648  0.40714519  0.75408693    -0.07800
N1941       N  0.73502190  0.39899209  0.74497899    -0.60620
N1942       N  0.65612989  0.43336026  0.82659242    -0.07480
N1943       N  0.65994255  0.42908339  0.86065500    -0.63130
C1944       C  0.68954330  0.43743417  0.86679065     0.93650
C1945       C  0.73835830  0.37123574  0.75850280     0.93430
N1946       N  0.60031792  0.35455774  0.75580975    -0.08710
N1947       N  0.59879634  0.32945976  0.73697821    -0.61220
N1948       N  0.59687309  0.40064770  0.82724637    -0.06830
N1949       N  0.59481656  0.41327618  0.85920076    -0.62480
N1950       N  0.57048572  0.40499865  0.80955336    -0.08740
N1951       N  0.55056314  0.42200699  0.82889609    -0.61490
N1952       N  0.62752736  0.35561367  0.77245445    -0.06470
N1953       N  0.64523167  0.33233516  0.76512417    -0.62560
Mn1954     Mn  0.64317659  0.39334951  0.80019332     1.18440
C1955       C  0.62743745  0.31626834  0.74258079     0.95730
C1956       C  0.56626379  0.42671027  0.86006707     0.96400
N1957       N  0.67794709  0.45430855  0.69109655    -0.08760
N1958       N  0.69770578  0.47013990  0.67091464    -0.65070
N1959       N  0.62252046  0.99123834  0.73256301    -0.07560
N1960       N  0.60882838  0.01742177  0.73582290    -0.65740
N1961       N  0.64919823  0.99065399  0.75108197    -0.08270
N1962       N  0.65434762  0.01680581  0.76636944    -0.65330
N1963       N  0.65061755  0.45142076  0.67405792    -0.07160
N1964       N  0.65189445  0.46393728  0.64255256    -0.66020
Mn1965     Mn  0.67967510  0.45050971  0.75161633     1.10660
C1966       C  0.68096611  0.47572653  0.64072144     0.96960
C1967       C  0.62854536  0.03290604  0.75737379     0.97030
N1968       N  0.54449057  0.43784079  0.74429642    -0.08270
N1969       N  0.51632311  0.44680237  0.75679289    -0.63650
N1970       N  0.58982776  0.41035928  0.67401729    -0.07590
N1971       N  0.59275642  0.40023890  0.64064961    -0.60380
N1972       N  0.57706108  0.38970905  0.69386267    -0.08900
N1973       N  0.57158265  0.36541777  0.67478074    -0.63210
N1974       N  0.55767680  0.45882831  0.72546432    -0.07890
N1975       N  0.53900005  0.98247638  0.72455741    -0.60400
Mn1976     Mn  0.57140092  0.39585896  0.75141731     1.20190
Mn1977     Mn  0.60495112  0.45309243  0.70055111     1.10090
Cl1978     Cl  0.62508210  0.42312554  0.75031672    -0.88370
C1979       C  0.51319848  0.47479355  0.74416687     0.93960
C1980       C  0.58150904  0.37178518  0.64132816     0.93760
N1981       N  0.68804269  0.03534283  0.44708207    -0.08530
N1982       N  0.68253820  0.05924692  0.42820492    -0.60650
N1983       N  0.67003925  0.46784367  0.47866947    -0.08210
N1984       N  0.65040251  0.44489414  0.47695662    -0.62770
N1985       N  0.65813016  0.48886786  0.49934908    -0.07800
N1986       N  0.62988224  0.48075742  0.51213800    -0.60620
N1987       N  0.70090834  0.51435273  0.42654682    -0.07480
N1988       N  0.70451307  0.02379057  0.39333015    -0.63130
C1989       C  0.69320324  0.05202649  0.39489124     0.93650
C1990       C  0.62537173  0.45312731  0.49791021     0.93430
N1991       N  0.76167292  0.43629154  0.49995766    -0.08710
N1992       N  0.76538264  0.41084941  0.51648314    -0.61220
N1993       N  0.76172701  0.47089888  0.42349221    -0.06830
N1994       N  0.76436026  0.45438104  0.39391539    -0.62480
N1995       N  0.78905401  0.47179850  0.44076113    -0.08740
N1996       N  0.81028902  0.45578500  0.42288905    -0.61490
N1997       N  0.73481194  0.43554832  0.48166884    -0.06470
N1998       N  0.71987436  0.41024630  0.48551669    -0.62560
Mn1999     Mn  0.71661932  0.47236578  0.45159902     1.18440
C2000       C  0.73897784  0.39521471  0.50715475     0.95730
C2001       C  0.79450516  0.44458117  0.39441843     0.96400
N2002       N  0.68874442  0.02198160  0.56503689    -0.08760
N2003       N  0.67095278  0.00383935  0.58440156    -0.65070
N2004       N  0.73890610  0.07351042  0.52846024    -0.07560
N2005       N  0.75252327  0.09958806  0.52690899    -0.65740
N2006       N  0.71160161  0.07293210  0.51195245    -0.08270
N2007       N  0.70606264  0.09915859  0.49795785    -0.65330
N2008       N  0.71620892  0.02616296  0.58109859    -0.07160
N2009       N  0.71727880  0.01160144  0.61142301    -0.66020
Mn2010     Mn  0.68505351  0.03069758  0.50630239     1.10660
C2011       C  0.68915518  0.99769790  0.61325073     0.96960
C2012       C  0.73188224  0.11528097  0.50794579     0.97030
N2013       N  0.81741985  0.02180876  0.49999147    -0.08270
N2014       N  0.84528769  0.03089312  0.48691792    -0.63650
N2015       N  0.77867746  0.49877023  0.57593827    -0.07590
N2016       N  0.78695738  0.50298896  0.60903613    -0.60380
N2017       N  0.79773718  0.48030475  0.55900998    -0.08900
N2018       N  0.82173236  0.47360237  0.58054641    -0.63210
N2019       N  0.80463579  0.04310370  0.52018819    -0.08530
N2020       N  0.82329213  0.06683318  0.52096908    -0.60400
Mn2021     Mn  0.79264634  0.47707234  0.49953202     1.20190
Mn2022     Mn  0.75942522  0.03592352  0.55124133     1.10090
Cl2023     Cl  0.73871811  0.50412721  0.50155105    -0.88370
C2024       C  0.84857375  0.05921560  0.50004084     0.93960
C2025       C  0.81361591  0.48760183  0.61203340     0.93760
N2026       N  0.69258347  0.29029007  0.44911905    -0.08530
N2027       N  0.69085910  0.31645029  0.43387656    -0.60650
N2028       N  0.67125752  0.21909124  0.47199392    -0.08210
N2029       N  0.65270938  0.19516872  0.47020360    -0.62770
N2030       N  0.65873268  0.23907769  0.49373709    -0.07800
N2031       N  0.63133284  0.22929950  0.50707059    -0.60620
N2032       N  0.70575471  0.27072799  0.42704093    -0.07480
N2033       N  0.71283916  0.28355440  0.39631409    -0.63130
C2034       C  0.70373186  0.31246301  0.40078266     0.93650
C2035       C  0.62765646  0.20179206  0.49216214     0.93430
N2036       N  0.76177368  0.18639084  0.49409926    -0.08710
N2037       N  0.76460760  0.16051003  0.50950766    -0.61220
N2038       N  0.76599401  0.22809826  0.42213124    -0.06830
N2039       N  0.77019743  0.21702283  0.38954214    -0.62480
N2040       N  0.79261163  0.22636947  0.44049376    -0.08740
N2041       N  0.81511499  0.21379655  0.42031383    -0.61490
N2042       N  0.73592819  0.18654253  0.47410951    -0.06470
N2043       N  0.72064771  0.16111885  0.47583437    -0.62560
Mn2044     Mn  0.71921227  0.22609248  0.44745340     1.18440
C2045       C  0.73880243  0.14530919  0.49785371     0.95730
C2046       C  0.80073755  0.20825743  0.38869364     0.96400
N2047       N  0.68509100  0.26787858  0.56338438    -0.08760
N2048       N  0.66646668  0.24889931  0.58093598    -0.65070
N2049       N  0.73878863  0.32211892  0.53444033    -0.07560
N2050       N  0.75267681  0.34824234  0.53498813    -0.65740
N2051       N  0.71159029  0.32251725  0.51771692    -0.08270
N2052       N  0.70643370  0.34942508  0.50567069    -0.65330
N2053       N  0.71146556  0.27261633  0.58129805    -0.07160
N2054       N  0.71065180  0.25826332  0.61155550    -0.66020
Mn2055     Mn  0.68522895  0.28060786  0.50622716     1.10660
C2056       C  0.68300349  0.24334602  0.61119544     0.96960
C2057       C  0.73217015  0.36500963  0.51704187     0.97030
N2058       N  0.81716527  0.26941285  0.50518451    -0.08270
N2059       N  0.84459988  0.27842435  0.49135233    -0.63650
N2060       N  0.77229342  0.24244882  0.57680376    -0.07590
N2061       N  0.77747700  0.24460558  0.61100338    -0.60380
N2062       N  0.79371395  0.22616853  0.56021969    -0.08900
N2063       N  0.81661235  0.21999226  0.58342901    -0.63210
N2064       N  0.80449151  0.29020016  0.52614762    -0.07890
N2065       N  0.82325500  0.31392948  0.52665688    -0.60400
Mn2066     Mn  0.79251764  0.22637544  0.49987649     1.20190
Mn2067     Mn  0.75703558  0.28253559  0.55468921     1.10090
Cl2068     Cl  0.73870634  0.25396469  0.50160056    -0.88370
C2069       C  0.84819033  0.30633413  0.50484254     0.93960
C2070       C  0.80521798  0.23138231  0.61527007     0.93760
N2071       N  0.94395607  0.16413122  0.44885576    -0.08530
N2072       N  0.94255857  0.18977568  0.43232701    -0.60650
N2073       N  0.92138454  0.09494068  0.47539447    -0.08210
N2074       N  0.90199373  0.07178115  0.47274069    -0.62770
N2075       N  0.90944281  0.11526799  0.49705084    -0.07800
N2076       N  0.88124622  0.10639121  0.50942173    -0.60620
N2077       N  0.95656733  0.14364250  0.42752936    -0.07480
N2078       N  0.96337572  0.15532851  0.39598752    -0.63130
C2079       C  0.95498648  0.18456641  0.39923151     0.93650
C2080       C  0.87684524  0.07905498  0.49397605     0.93430
N2081       N  0.51041850  0.06059840  0.49962997    -0.08710
N2082       N  0.51288433  0.03479748  0.51546388    -0.61220
N2083       N  0.51471120  0.09663318  0.42424725    -0.06830
N2084       N  0.51725011  0.08048474  0.39438352    -0.62480
N2085       N  0.54139940  0.09555896  0.44265522    -0.08740
N2086       N  0.56210637  0.07856560  0.42519367    -0.61490
N2087       N  0.48434703  0.06082261  0.47994446    -0.06470
N2088       N  0.96864653  0.03569532  0.48226800    -0.62560
Mn2089     Mn  0.96884655  0.09935306  0.45055155     1.18440
C2090       C  0.48659524  0.01985956  0.50441589     0.95730
C2091       C  0.54654270  0.06873195  0.39581784     0.96400
N2092       N  0.93938593  0.14725208  0.56543823    -0.08760
N2093       N  0.92135748  0.12912233  0.58457185    -0.65070
N2094       N  0.49193022  0.19854734  0.53078804    -0.07560
N2095       N  0.50575097  0.22460000  0.52996207    -0.65740
N2096       N  0.96431734  0.19851780  0.51499642    -0.08270
N2097       N  0.95873699  0.22501527  0.50205433    -0.65330
N2098       N  0.96639522  0.15203015  0.58220977    -0.07160
N2099       N  0.96676804  0.13812626  0.61295898    -0.66020
Mn2100     Mn  0.93738392  0.15686370  0.50698970     1.10660
C2101       C  0.93895685  0.12375307  0.61415503     0.96960
C2102       C  0.98476515  0.24074891  0.51199960     0.97030
N2103       N  0.56920230  0.14402452  0.50302505    -0.08270
N2104       N  0.59662444  0.15284646  0.48846545    -0.63650
N2105       N  0.52664239  0.12228249  0.57749123    -0.07590
N2106       N  0.53082258  0.12419526  0.61180029    -0.60380
N2107       N  0.54503626  0.10249704  0.56208717    -0.08900
N2108       N  0.56484673  0.09224396  0.58667478    -0.63210
N2109       N  0.55671236  0.16582330  0.52265268    -0.07890
N2110       N  0.57526387  0.18959495  0.52172687    -0.60400
Mn2111     Mn  0.54293460  0.10011437  0.50178886     1.20190
Mn2112     Mn  0.51060500  0.16027406  0.55301849     1.10090
Cl2113     Cl  0.49018259  0.12912856  0.50261446    -0.88370
C2114       C  0.60010945  0.18149994  0.50031025     0.93960
C2115       C  0.55447600  0.10579522  0.61783800     0.93760
N2116       N  0.93705604  0.41095759  0.44782096    -0.08530
N2117       N  0.93143190  0.43531226  0.42991347    -0.60650
N2118       N  0.91999256  0.34174205  0.47626151    -0.08210
N2119       N  0.90099014  0.31819626  0.47524111    -0.62770
N2120       N  0.90763711  0.36243546  0.49712445    -0.07800
N2121       N  0.88003687  0.35359708  0.51077739    -0.60620
N2122       N  0.95032895  0.39068167  0.42667954    -0.07480
N2123       N  0.95428150  0.40099297  0.39401465    -0.63130
C2124       C  0.94263925  0.42898232  0.39660965     0.93650
C2125       C  0.87605034  0.32587460  0.49691215     0.93430
N2126       N  0.51298540  0.31204019  0.49582735    -0.08710
N2127       N  0.51706454  0.28651418  0.51182812    -0.61220
N2128       N  0.51314396  0.35160760  0.42230957    -0.06830
N2129       N  0.51715413  0.34008237  0.38989511    -0.62480
N2130       N  0.54039707  0.35188443  0.43970250    -0.08740
N2131       N  0.56309982  0.34024016  0.41908453    -0.61490
N2132       N  0.98637882  0.31119365  0.47713241    -0.06470
N2133       N  0.97189364  0.28559157  0.48017483    -0.62560
Mn2134     Mn  0.96706044  0.34866392  0.44944071     1.18440
C2135       C  0.49117160  0.27065411  0.50170694     0.95730
C2136       C  0.54823696  0.33317154  0.38821386     0.96400
N2137       N  0.93542323  0.39304752  0.56379259    -0.08760
N2138       N  0.91736298  0.37399534  0.58186077    -0.65070
N2139       N  0.48651477  0.44704452  0.53200910    -0.07560
N2140       N  0.49993334  0.47329174  0.53220242    -0.65740
N2141       N  0.95951228  0.44681982  0.51482991    -0.08270
N2142       N  0.95405392  0.47354416  0.50214852    -0.65330
N2143       N  0.96225634  0.39773716  0.58086955    -0.07160
N2144       N  0.96237493  0.38319318  0.61101590    -0.66020
Mn2145     Mn  0.93345886  0.40426650  0.50620116     1.10660
C2146       C  0.93469240  0.36832157  0.61144830     0.96960
C2147       C  0.97950109  0.48956666  0.51365960     0.97030
N2148       N  0.56594364  0.39702436  0.50275046    -0.08270
N2149       N  0.59367439  0.40621116  0.48993835    -0.63650
N2150       N  0.52566529  0.37028118  0.57646674    -0.07590
N2151       N  0.53363540  0.37389725  0.60982634    -0.60380
N2152       N  0.54627786  0.35381202  0.55875541    -0.08900
N2153       N  0.57097029  0.34860191  0.57992603    -0.63210
N2154       N  0.55302313  0.41756474  0.52386765    -0.07890
N2155       N  0.57174869  0.44126994  0.52548738    -0.60400
Mn2156     Mn  0.54254323  0.35305505  0.49895481     1.20190
Mn2157     Mn  0.50675152  0.40871549  0.55325791     1.10090
Cl2158     Cl  0.48788025  0.37878454  0.50102574    -0.88370
C2159       C  0.59698836  0.43396465  0.50412257     0.93960
C2160       C  0.56179026  0.36080004  0.61209184     0.93760
N2161       N  0.93096712  0.71168190  0.31504213    -0.08530
N2162       N  0.95442447  0.71182513  0.33905282    -0.60650
N2163       N  0.94122641  0.65119600  0.27429013    -0.08210
N2164       N  0.96040533  0.62787492  0.27645881    -0.62770
N2165       N  0.95506532  0.67215122  0.25559978    -0.07800
N2166       N  0.98432866  0.66385519  0.24587297    -0.60620
N2167       N  0.90685993  0.69738382  0.32878415    -0.07480
N2168       N  0.91090272  0.69197836  0.36254184    -0.63130
C2169       C  0.94055954  0.70006014  0.36905750     0.93650
C2170       C  0.98716190  0.63574938  0.25832577     0.93430
N2171       N  0.84971909  0.61993875  0.25550417    -0.08710
N2172       N  0.84726603  0.59401992  0.23856085    -0.61220
N2173       N  0.84694917  0.66573005  0.32778905    -0.06830
N2174       N  0.84391828  0.67879378  0.35954431    -0.62480
N2175       N  0.82025751  0.66768995  0.31001714    -0.08740
N2176       N  0.79870459  0.68245021  0.32925370    -0.61490
N2177       N  0.87687853  0.62101402  0.27230805    -0.06470
N2178       N  0.89376841  0.59697207  0.26678423    -0.62560
Mn2179     Mn  0.89298690  0.65831579  0.30093470     1.18440
C2180       C  0.87544293  0.58040643  0.24540684     0.95730
C2181       C  0.81389356  0.68913192  0.36006599     0.96400
N2182       N  0.92791164  0.71841665  0.19385390    -0.08760
N2183       N  0.94981990  0.73035317  0.17262569    -0.65070
N2184       N  0.87221456  0.75650601  0.23486547    -0.07560
N2185       N  0.85862029  0.78273777  0.23690598    -0.65740
N2186       N  0.89906444  0.75630111  0.25320586    -0.08270
N2187       N  0.90441979  0.78311844  0.26688800    -0.65330
N2188       N  0.90052149  0.71710024  0.17664658    -0.07160
N2189       N  0.90360107  0.72736249  0.14408298    -0.66020
Mn2190     Mn  0.92971712  0.71546985  0.25411794     1.10660
C2191       C  0.93413505  0.73557687  0.14172286     0.96960
C2192       C  0.87847598  0.79897707  0.25722906     0.97030
N2193       N  0.79375980  0.70354654  0.24689617    -0.08270
N2194       N  0.76569247  0.71240419  0.25994166    -0.63650
N2195       N  0.83765364  0.67755832  0.17459223    -0.07590
N2196       N  0.83968768  0.66814385  0.14075488    -0.60380
N2197       N  0.82436664  0.65697475  0.19424582    -0.08900
N2198       N  0.81705179  0.63345866  0.17477989    -0.63210
N2199       N  0.80680544  0.72477945  0.22827218    -0.07890
N2200       N  0.78810375  0.74846876  0.22812566    -0.60400
Mn2201     Mn  0.82067912  0.66113403  0.25205108     1.20190
Mn2202     Mn  0.85412069  0.71913086  0.20253476     1.10090
Cl2203     Cl  0.87483032  0.68858543  0.25136476    -0.88370
C2204       C  0.76242486  0.74061773  0.24795832     0.93960
C2205       C  0.82697285  0.64034768  0.14164825     0.93760
N2206       N  0.90515262  0.51016746  0.25889319    -0.08530
N2207       N  0.90829307  0.53520208  0.24127019    -0.60650
N2208       N  0.90482081  0.96766744  0.32957632    -0.08210
N2209       N  0.90600380  0.95903896  0.36290458    -0.62770
N2210       N  0.93197352  0.96241898  0.31300820    -0.07800
N2211       N  0.95185226  0.94878201  0.33468821    -0.60620
N2212       N  0.87704413  0.50965837  0.27423944    -0.07480
N2213       N  0.86029350  0.53330302  0.26724422    -0.63130
C2214       C  0.87969095  0.54890477  0.24620515     0.93650
C2215       C  0.93522140  0.94745774  0.36598078     0.93430
N2216       N  0.82314920  0.91783372  0.31157186    -0.08710
N2217       N  0.79893631  0.91665281  0.33482599    -0.61220
N2218       N  0.81328948  0.97825074  0.27305599    -0.06830
N2219       N  0.79484697  0.50214050  0.27331659    -0.62480
N2220       N  0.80074410  0.95713421  0.25289914    -0.08740
N2221       N  0.77329278  0.96609565  0.23951420    -0.61490
N2222       N  0.84629316  0.93280634  0.32654350    -0.06470
N2223       N  0.84094254  0.93766270  0.36045467    -0.62560
Mn2224     Mn  0.86005145  0.97259145  0.30118662     1.18440
C2225       C  0.81121826  0.92891236  0.36543799     0.95730
C2226       C  0.76998732  0.49441263  0.25231575     0.96400
N2227       N  0.95931688  0.92492907  0.24751971    -0.08760
N2228       N  0.98677208  0.91461291  0.25972522    -0.65070
N2229       N  0.91574510  0.95295593  0.17704738    -0.07560
N2230       N  0.91003148  0.96403107  0.14513019    -0.65740
N2231       N  0.92891922  0.97345349  0.19735609    -0.08270
N2232       N  0.93186983  0.99851896  0.18000586    -0.65330
N2233       N  0.94550384  0.90428161  0.22810954    -0.07160
N2234       N  0.96236677  0.87956382  0.22724526    -0.66020
Mn2235     Mn  0.93344043  0.96831089  0.25467285     1.10660
C2236       C  0.98787262  0.88587959  0.24741325     0.96960
C2237       C  0.92003379  0.99286567  0.14717926     0.97030
N2238       N  0.82818634  0.90991511  0.19141751    -0.08270
N2239       N  0.80797437  0.89529984  0.17054220    -0.63650
N2240       N  0.88230302  0.87231101  0.23193048    -0.07590
N2241       N  0.89661701  0.84652196  0.23508318    -0.60380
N2242       N  0.85536041  0.87294222  0.25046048    -0.08900
N2243       N  0.85055658  0.84702274  0.26562047    -0.63210
N2244       N  0.85578969  0.91210398  0.17451083    -0.07890
N2245       N  0.85457956  0.89992163  0.14232585    -0.60400
Mn2246     Mn  0.82537922  0.91370571  0.25131225     1.20190
Mn2247     Mn  0.90025130  0.91040029  0.20177853     1.10090
Cl2248     Cl  0.87966430  0.94121390  0.25190628    -0.88370
C2249       C  0.82492956  0.88947125  0.14008950     0.93960
C2250       C  0.87697212  0.83114596  0.25654859     0.93760
N2251       N  0.56353011  0.60334820  0.27267036    -0.08530
N2252       N  0.54399574  0.62641780  0.27568639    -0.60650
N2253       N  0.57426731  0.54306647  0.31190252    -0.08210
N2254       N  0.55071106  0.54104348  0.33592511    -0.62770
N2255       N  0.59718318  0.55869896  0.32627243    -0.07800
N2256       N  0.59234216  0.56366524  0.36027742    -0.60620
N2257       N  0.55009611  0.58187001  0.25379917    -0.07480
N2258       N  0.52070510  0.58965012  0.24483445    -0.63130
C2259       C  0.51741489  0.61791262  0.25799152     0.93650
C2260       C  0.56321953  0.55372982  0.36623424     0.93430
N2261       N  0.63337876  0.99729060  0.23221974    -0.08710
N2262       N  0.64719731  0.97130982  0.23564136    -0.61220
N2263       N  0.57804020  0.53371322  0.19131152    -0.06830
N2264       N  0.55710821  0.51931263  0.17097273    -0.62480
N2265       N  0.60559782  0.53492555  0.17396056    -0.08740
N2266       N  0.60352618  0.52220719  0.14207277    -0.61490
N2267       N  0.60633439  0.99834655  0.25067851    -0.06470
N2268       N  0.60107997  0.97267271  0.26611438    -0.62560
Mn2269     Mn  0.57581785  0.53858177  0.25145034     1.18440
C2270       C  0.62716958  0.95643363  0.25723013     0.95730
C2271       C  0.57346412  0.51250848  0.14034623     0.96400
N2272       N  0.65608863  0.59241537  0.32787408    -0.08760
N2273       N  0.65714327  0.58304708  0.36095794    -0.65070
N2274       N  0.65578760  0.63486917  0.25680117    -0.07560
N2275       N  0.65932229  0.66032649  0.24019939    -0.65740
N2276       N  0.62778559  0.63430035  0.27230037    -0.08270
N2277       N  0.61135808  0.65829598  0.26639749    -0.65330
N2278       N  0.68304764  0.58683484  0.31102059    -0.07160
N2279       N  0.70250688  0.57209179  0.33230665    -0.66020
Mn2280     Mn  0.61101768  0.59769666  0.29978569     1.10660
C2281       C  0.68591096  0.57044879  0.36369282     0.96960
C2282       C  0.63095665  0.67419921  0.24598304     0.97030
N2283       N  0.66642645  0.57698575  0.17406500    -0.08270
N2284       N  0.66198066  0.58721992  0.14135858    -0.63650
N2285       N  0.71084956  0.55105952  0.24515678    -0.07590
N2286       N  0.73865406  0.54241256  0.25804170    -0.60380
N2287       N  0.69837160  0.52974576  0.22557402    -0.08900
N2288       N  0.71720361  0.00614395  0.22466646    -0.63210
N2289       N  0.67902264  0.59797323  0.19425876    -0.07890
N2290       N  0.68268565  0.62257102  0.17607667    -0.60400
Mn2291     Mn  0.65132715  0.53454447  0.20028583     1.20190
Mn2292     Mn  0.68398956  0.59330955  0.25224823     1.10090
Cl2293     Cl  0.63036216  0.56600169  0.25041832    -0.88370
C2294       C  0.67172516  0.61617392  0.14296948     0.93960
C2295       C  0.74236897  0.51422949  0.24496807     0.93760
N2296       N  0.69077427  0.77726347  0.27638529    -0.08530
N2297       N  0.70915456  0.75330491  0.27618594    -0.60650
N2298       N  0.67954027  0.83766827  0.31676517    -0.08210
N2299       N  0.70256926  0.83941059  0.34111782    -0.62770
N2300       N  0.65575059  0.82299808  0.33055910    -0.07800
N2301       N  0.65955086  0.81857812  0.36455535    -0.60620
N2302       N  0.70391515  0.79814295  0.25686873    -0.07480
N2303       N  0.73171986  0.78890394  0.24360365    -0.63130
C2304       C  0.73464775  0.76069674  0.25569448     0.93650
C2305       C  0.68877857  0.82796005  0.37125494     0.93430
N2306       N  0.62203997  0.88186224  0.23621949    -0.08710
N2307       N  0.60859574  0.90817941  0.23734215    -0.61220
N2308       N  0.67828555  0.84770136  0.19675516    -0.06830
N2309       N  0.69817414  0.86564481  0.18001228    -0.62480
N2310       N  0.65182705  0.84569665  0.17800435    -0.08740
N2311       N  0.65373954  0.86173304  0.14879133    -0.61490
N2312       N  0.64819869  0.88179152  0.25569201    -0.06470
N2313       N  0.65340019  0.90858263  0.26929281    -0.62560
Mn2314     Mn  0.67893834  0.84174830  0.25629587     1.18440
C2315       C  0.62796726  0.92441502  0.25838144     0.95730
C2316       C  0.68219650  0.87493121  0.15082698     0.96400
N2317       N  0.59596520  0.79070946  0.32898896    -0.08760
N2318       N  0.59216790  0.80405821  0.36043525    -0.65070
N2319       N  0.60043460  0.74435976  0.25798936    -0.07560
N2320       N  0.59858670  0.71895662  0.23997414    -0.65740
N2321       N  0.62739182  0.74552172  0.27508364    -0.08270
N2322       N  0.64472107  0.72180663  0.26888816    -0.65330
N2323       N  0.56962708  0.79234408  0.31046307    -0.07160
N2324       N  0.54751121  0.80706151  0.32889541    -0.66020
Mn2325     Mn  0.64264669  0.78351687  0.30324710     1.10660
C2326       C  0.56203803  0.81411711  0.36000042     0.96960
C2327       C  0.62684518  0.70560941  0.24652453     0.97030
N2328       N  0.59328720  0.79998610  0.17611233    -0.08270
N2329       N  0.59969849  0.78846831  0.14384992    -0.63650
N2330       N  0.54529956  0.82761482  0.24557193    -0.07590
N2331       N  0.51731036  0.83755516  0.25775580    -0.60380
N2332       N  0.55957995  0.84853069  0.22771227    -0.08900
N2333       N  0.54246834  0.87308881  0.22780803    -0.63210
N2334       N  0.58016317  0.77941606  0.19583251    -0.07890
N2335       N  0.57837846  0.75397879  0.17812369    -0.60400
Mn2336     Mn  0.60625837  0.84367288  0.20332194     1.20190
Mn2337     Mn  0.57201442  0.78518820  0.25271077     1.10090
Cl2338     Cl  0.62528350  0.81351669  0.25338710    -0.88370
C2339       C  0.59062575  0.75927122  0.14546371     0.93960
C2340       C  0.51630821  0.86635117  0.24696808     0.93760
N2341       N  0.81359080  0.60094119  0.06025868    -0.08530
N2342       N  0.83365626  0.61714544  0.07974528    -0.60650
N2343       N  0.76217468  0.54760541  0.02928716    -0.08210
N2344       N  0.74925966  0.52119805  0.03033172    -0.62770
N2345       N  0.78920102  0.54748929  0.01146211    -0.07800
N2346       N  0.79514916  0.52036024  0.99912297    -0.60620
N2347       N  0.78683302  0.59704970  0.07801213    -0.07480
N2348       N  0.78838919  0.60947640  0.10999282    -0.63130
C2349       C  0.81742767  0.62192205  0.11086843     0.93650
C2350       C  0.77012476  0.00448200  0.01161495     0.93430
N2351       N  0.68235908  0.59659973  0.00255976    -0.08710
N2352       N  0.65468199  0.58704117  0.99055648    -0.61220
N2353       N  0.72488664  0.62669040  0.07509797    -0.06830
N2354       N  0.71850994  0.62263846  0.10884641    -0.62480
N2355       N  0.70134125  0.63969197  0.05890147    -0.08740
N2356       N  0.67624290  0.64022352  0.08121429    -0.61490
N2357       N  0.69540541  0.57688440  0.02357446    -0.06470
N2358       N  0.67677605  0.55315203  0.02569978    -0.62560
Mn2359     Mn  0.74207406  0.58655577  0.05155813     1.18440
C2360       C  0.65151845  0.55981974  0.00490007     0.95730
C2361       C  0.68816215  0.63006496  0.11268104     0.96400
N2362       N  0.81126468  0.58192389  0.94431472    -0.08760
N2363       N  0.81891731  0.55750804  0.92628747    -0.65070
N2364       N  0.82335426  0.65278705  0.97327691    -0.07560
N2365       N  0.83873764  0.67839074  0.97400445    -0.65740
N2366       N  0.83733800  0.63350704  0.99362514    -0.08270
N2367       N  0.86294864  0.64550019  0.00834935    -0.65330
N2368       N  0.79702975  0.60086760  0.92337480    -0.07160
N2369       N  0.79451117  0.58952489  0.89057877    -0.66020
Mn2370     Mn  0.81450039  0.59017008  0.00243933     1.10660
C2371       C  0.80805582  0.56231484  0.89299558     0.96960
C2372       C  0.86307320  0.67383168  0.99653682     0.97030
N2373       N  0.73307482  0.68167638  0.99410540    -0.08270
N2374       N  0.72966842  0.70777052  0.01026590    -0.63650
N2375       N  0.73344901  0.63806910  0.92005006    -0.07590
N2376       N  0.73109374  0.64915089  0.88782312    -0.60380
N2377       N  0.70624117  0.64071389  0.93790917    -0.08900
N2378       N  0.68530881  0.65446319  0.91760822    -0.63210
N2379       N  0.75882996  0.68184184  0.97352350    -0.07890
N2380       N  0.77351122  0.70746887  0.97545570    -0.60400
Mn2381     Mn  0.70449264  0.64037041  0.99818978     1.20190
Mn2382     Mn  0.77840208  0.64311994  0.94648589     1.10090
Cl2383     Cl  0.75957534  0.61475767  0.99910856    -0.88370
C2384       C  0.75523791  0.72322840  0.99823403     0.93960
C2385       C  0.70126452  0.65940309  0.88652919     0.93760
N2386       N  0.81269842  0.84598506  0.06198220    -0.08530
N2387       N  0.83222937  0.86281238  0.08118415    -0.60650
N2388       N  0.75776942  0.79581436  0.02886719    -0.08210
N2389       N  0.74292344  0.77024405  0.02796015    -0.62770
N2390       N  0.78516351  0.79485163  0.01192744    -0.07800
N2391       N  0.78943155  0.76800683  0.99802490    -0.60620
N2392       N  0.78585945  0.84217577  0.07965572    -0.07480
N2393       N  0.78692215  0.85550719  0.11123921    -0.63130
C2394       C  0.81552242  0.86847463  0.11182110     0.93650
C2395       C  0.76291940  0.75320753  0.00866441     0.93430
N2396       N  0.68055412  0.85078690  0.00608799    -0.08710
N2397       N  0.65155582  0.84305571  0.99534797    -0.61220
N2398       N  0.72815657  0.87513690  0.07759065    -0.06830
N2399       N  0.72520504  0.87318394  0.11208629    -0.62480
N2400       N  0.70661137  0.89217245  0.06389925    -0.08740
N2401       N  0.68555837  0.89910505  0.08971848    -0.61490
N2402       N  0.69332529  0.82916554  0.02450624    -0.06470
N2403       N  0.67355248  0.80615960  0.02563683    -0.62560
Mn2404     Mn  0.74086770  0.83501301  0.05233446     1.18440
C2405       C  0.64761694  0.81478545  0.00704322     0.95730
C2406       C  0.69858169  0.88733398  0.11993554     0.96400
N2407       N  0.80675741  0.82812117  0.94663676    -0.08760
N2408       N  0.80890826  0.80217191  0.92994645    -0.65070
N2409       N  0.82875380  0.89811732  0.97322421    -0.07560
N2410       N  0.84701926  0.92209827  0.97160508    -0.65740
N2411       N  0.84100546  0.87836016  0.99433558    -0.08270
N2412       N  0.86836602  0.88861313  0.00740833    -0.65330
N2413       N  0.79419937  0.84800978  0.92569069    -0.07160
N2414       N  0.78825940  0.83560154  0.89401918    -0.66020
Mn2415     Mn  0.81320966  0.83631790  0.00399064     1.10660
C2416       C  0.79728965  0.80659725  0.89692052     0.96960
C2417       C  0.87188054  0.91609269  0.99291322     0.97030
N2418       N  0.74025508  0.93271084  0.99997563    -0.08270
N2419       N  0.73765401  0.95906619  0.01552692    -0.63650
N2420       N  0.73562317  0.89444937  0.92442344    -0.07590
N2421       N  0.73367360  0.90960019  0.89450350    -0.60380
N2422       N  0.70893603  0.89689101  0.94346413    -0.08900
N2423       N  0.68884738  0.91392997  0.92614621    -0.63210
N2424       N  0.76606058  0.93193794  0.97928368    -0.07890
N2425       N  0.78149867  0.95728614  0.98071529    -0.60400
Mn2426     Mn  0.70756608  0.89370930  0.00333552     1.20190
Mn2427     Mn  0.78158132  0.89265892  0.94929882     1.10090
Cl2428     Cl  0.76028027  0.86438574  0.00116989    -0.88370
C2429       C  0.76362571  0.97376244  0.00333059     0.93960
C2430       C  0.70486208  0.92227914  0.89632505     0.93760
N2431       N  0.56004668  0.97000034  0.06120069    -0.08530
N2432       N  0.57980135  0.98584691  0.08130557    -0.60650
N2433       N  0.50518350  0.92376282  0.01934579    -0.08210
N2434       N  0.98785464  0.90061878  0.01080636    -0.62770
N2435       N  0.53268178  0.92338207  0.00277435    -0.07800
N2436       N  0.53486119  0.89889139  0.98284923    -0.60620
N2437       N  0.53265473  0.96707049  0.07805923    -0.07480
N2438       N  0.53347427  0.98040907  0.10982417    -0.63130
C2439       C  0.56283645  0.99205600  0.11157846     0.93650
C2440       C  0.50623215  0.88529920  0.98771853     0.93430
N2441       N  0.92921422  0.97550863  0.00180736    -0.08710
N2442       N  0.90166118  0.96584428  0.98846914    -0.61220
N2443       N  0.97200455  0.49749156  0.07805973    -0.06830
N2444       N  0.96563999  0.49225740  0.11141348    -0.62480
N2445       N  0.95079138  0.51475323  0.06384273    -0.08740
N2446       N  0.92710900  0.51898329  0.08746680    -0.61490
N2447       N  0.94212941  0.95438303  0.02083296    -0.06470
N2448       N  0.92414887  0.93023820  0.02048912    -0.62560
Mn2449     Mn  0.98822378  0.96019054  0.04925134     1.18440
C2450       C  0.89895585  0.93728147  0.00019991     0.95730
C2451       C  0.93778935  0.50516943  0.11735715     0.96400
N2452       N  0.55954923  0.96202320  0.94400546    -0.08760
N2453       N  0.56627642  0.93849970  0.92407505    -0.65070
N2454       N  0.57778207  0.52774175  0.98096617    -0.07560
N2455       N  0.59773340  0.55035146  0.98032614    -0.65740
N2456       N  0.58974127  0.50583124  0.99903600    -0.08270
N2457       N  0.61838592  0.51306442  0.01119129    -0.65330
N2458       N  0.54703122  0.48327303  0.92479910    -0.07160
N2459       N  0.54513394  0.97406007  0.89077099    -0.66020
Mn2460     Mn  0.56195318  0.96434419  0.00231283     1.10660
C2461       C  0.55698413  0.94579019  0.89107734     0.96960
C2462       C  0.62295369  0.54107428  0.99923528     0.97030
N2463       N  0.98569346  0.56062376  0.00717832    -0.08270
N2464       N  0.97978057  0.58671600  0.02260865    -0.63650
N2465       N  0.98614109  0.52809176  0.92792268    -0.07590
N2466       N  0.98395106  0.54410116  0.89870559    -0.60380
N2467       N  0.95857922  0.52739952  0.94532319    -0.08900
N2468       N  0.93760033  0.54322694  0.92779979    -0.63210
N2469       N  0.01328209  0.56163926  0.98969060    -0.07890
N2470       N  0.52667654  0.58786713  0.99390939    -0.60400
Mn2471     Mn  0.95466822  0.52005965  0.00403420     1.20190
Mn2472     Mn  0.53129431  0.52517986  0.95472635     1.10090
Cl2473     Cl  0.00876135  0.49251283  0.00191826    -0.88370
C2474       C  0.00598504  0.60313568  0.01488977     0.93960
C2475       C  0.95385694  0.55405759  0.89938985     0.93760
N2476       N  0.94981366  0.77111477  0.05992681    -0.08530
N2477       N  0.92947670  0.75723041  0.08107237    -0.60650
N2478       N  0.00497530  0.81497414  0.01595410    -0.08210
N2479       N  0.52161599  0.83844088  0.00789581    -0.62770
N2480       N  0.97705302  0.81498264  0.00085841    -0.07800
N2481       N  0.97388762  0.83968763  0.98255830    -0.60620
N2482       N  0.97704549  0.77501134  0.07637645    -0.07480
N2483       N  0.97559130  0.76410700  0.10895673    -0.63130
C2484       C  0.94595193  0.75311498  0.11155688     0.93650
C2485       C  0.00241422  0.85368937  0.98685119     0.93430
N2486       N  0.58322896  0.76204698  0.00252735    -0.08710
N2487       N  0.61340441  0.76871257  0.99472258    -0.61220
N2488       N  0.53803345  0.74560924  0.07820600    -0.06830
N2489       N  0.54482462  0.75502712  0.11029491    -0.62480
N2490       N  0.56008899  0.72803410  0.06486268    -0.08740
N2491       N  0.58470282  0.72822353  0.08729914    -0.61490
N2492       N  0.56946133  0.78489353  0.01893085    -0.06470
N2493       N  0.58946908  0.80761360  0.02118652    -0.62560
Mn2494     Mn  0.52206072  0.78070125  0.04721194     1.18440
C2495       C  0.61680008  0.79762024  0.00569290     0.95730
C2496       C  0.57386764  0.74500431  0.11576927     0.96400
N2497       N  0.95106424  0.77314794  0.94342805    -0.08760
N2498       N  0.94229741  0.79498826  0.92292681    -0.65070
N2499       N  0.93621602  0.70842901  0.98199657    -0.07560
N2500       N  0.91823796  0.68457609  0.98093079    -0.65740
N2501       N  0.92180841  0.73055050  0.99848753    -0.08270
N2502       N  0.89263618  0.72221516  0.00824103    -0.65330
N2503       N  0.96463556  0.75150643  0.92467901    -0.07160
N2504       N  0.96520282  0.75863654  0.89023417    -0.66020
Mn2505     Mn  0.94835011  0.77342034  0.00130330     1.10660
C2506       C  0.95141201  0.78613410  0.88992581     0.96960
C2507       C  0.89130043  0.69309682  0.99757627     0.97030
N2508       N  0.52610355  0.67812262  0.00894209    -0.08270
N2509       N  0.53192938  0.65226912  0.02381354    -0.63650
N2510       N  0.52665251  0.70829219  0.92874694    -0.07590
N2511       N  0.52799482  0.69023775  0.90052700    -0.60380
N2512       N  0.55380369  0.70809890  0.94644083    -0.08900
N2513       N  0.57353505  0.68938394  0.93001355    -0.63210
N2514       N  0.49924025  0.67646649  0.99076452    -0.07890
N2515       N  0.98604030  0.65019515  0.99418596    -0.60400
Mn2516     Mn  0.55693926  0.71851448  0.00526248     1.20190
Mn2517     Mn  0.98174325  0.71151633  0.95557310     1.10090
Cl2518     Cl  0.50260048  0.74606041  0.00168464    -0.88370
C2519       C  0.50618876  0.63545236  0.01519114     0.93960
C2520       C  0.55682061  0.67778094  0.90220334     0.93760
N2521       N  0.92936541  0.57198875  0.81298882    -0.08530
N2522       N  0.95022370  0.57850828  0.83863362    -0.60650
N2523       N  0.94136352  0.51071410  0.77141287    -0.08210
N2524       N  0.95982616  0.98690495  0.77116397    -0.62770
N2525       N  0.95464359  0.53200407  0.75270355    -0.07800
N2526       N  0.98265102  0.52306569  0.73972931    -0.60620
N2527       N  0.90772236  0.55443804  0.82648338    -0.07480
N2528       N  0.91084914  0.55127947  0.86075133    -0.63130
C2529       C  0.93739909  0.56561024  0.86845955     0.93650
C2530       C  0.98545768  0.99471302  0.75133460     0.93430
N2531       N  0.85077323  0.97797588  0.75386496    -0.08710
N2532       N  0.84859064  0.95273849  0.73536966    -0.61220
N2533       N  0.84825130  0.52100549  0.82687474    -0.06830
N2534       N  0.84595664  0.53090053  0.86011001    -0.62480
N2535       N  0.82171614  0.52591608  0.80975244    -0.08740
N2536       N  0.80124490  0.54053123  0.83086441    -0.61490
N2537       N  0.87829487  0.97885498  0.76980471    -0.06470
N2538       N  0.89560972  0.95538562  0.76237647    -0.62560
Mn2539     Mn  0.89400903  0.51575761  0.79883788     1.18440
C2540       C  0.87722437  0.93930997  0.74051648     0.95730
C2541       C  0.81674883  0.54291707  0.86246699     0.96400
N2542       N  0.92865823  0.58001208  0.69178917    -0.08760
N2543       N  0.94797420  0.59645142  0.67182536    -0.65070
N2544       N  0.87365175  0.61647405  0.73332313    -0.07560
N2545       N  0.85988247  0.64265518  0.73610060    -0.65740
N2546       N  0.90003238  0.61604164  0.75223447    -0.08270
N2547       N  0.90506691  0.64234166  0.76725925    -0.65330
N2548       N  0.90155374  0.57642319  0.67457466    -0.07160
N2549       N  0.90247929  0.58906746  0.64313994    -0.66020
Mn2550     Mn  0.92990130  0.57568345  0.75231559     1.10660
C2551       C  0.93115060  0.60166196  0.64156945     0.96960
C2552       C  0.87931741  0.65836703  0.75773279     0.97030
N2553       N  0.79656708  0.56296219  0.74593403    -0.08270
N2554       N  0.76874389  0.57311885  0.75823315    -0.63650
N2555       N  0.84122709  0.53565256  0.67469760    -0.07590
N2556       N  0.84510715  0.52566856  0.64141907    -0.60380
N2557       N  0.82792777  0.51491822  0.69390674    -0.08900
N2558       N  0.82305912  0.49069579  0.67449066    -0.63210
N2559       N  0.81095810  0.58379852  0.72798255    -0.07890
N2560       N  0.79417663  0.60850045  0.72822105    -0.60400
Mn2561     Mn  0.82232092  0.51976233  0.75131408     1.20190
Mn2562     Mn  0.85650813  0.57798523  0.70164834     1.10090
Cl2563     Cl  0.87610314  0.54752703  0.75049482    -0.88370
C2564       C  0.76809884  0.60193566  0.74752574     0.93960
C2565       C  0.83369065  0.49726483  0.64139682     0.93760
N2566       N  0.82618273  0.77957168  0.81369767    -0.08530
N2567       N  0.80228975  0.77793074  0.83741909    -0.60650
N2568       N  0.81558125  0.83916178  0.77256421    -0.08210
N2569       N  0.79590838  0.86223717  0.77534083    -0.62770
N2570       N  0.80194751  0.81725655  0.75460425    -0.07800
N2571       N  0.77231720  0.82480187  0.74606423    -0.60620
N2572       N  0.84864974  0.79602843  0.82760145    -0.07480
N2573       N  0.84298868  0.80250296  0.86110265    -0.63130
C2574       C  0.81412905  0.79186172  0.86725929     0.93650
C2575       C  0.76896225  0.85334843  0.75844294     0.93430
N2576       N  0.90786405  0.86916183  0.75259382    -0.08710
N2577       N  0.91021372  0.89402903  0.73437573    -0.61220
N2578       N  0.90981406  0.82640782  0.82540515    -0.06830
N2579       N  0.91189688  0.81537081  0.85769078    -0.62480
N2580       N  0.93652709  0.82182705  0.80760493    -0.08740
N2581       N  0.95685207  0.80655942  0.82722466    -0.61490
N2582       N  0.88037590  0.86886599  0.76927249    -0.06470
N2583       N  0.86322622  0.89227506  0.76246357    -0.62560
Mn2584     Mn  0.86380850  0.83316678  0.79870336     1.18440
C2585       C  0.88167524  0.90774666  0.74035130     0.95730
C2586       C  0.94101827  0.80294644  0.85858228     0.96400
N2587       N  0.83050520  0.76696652  0.69413211    -0.08760
N2588       N  0.80831836  0.75261374  0.67606567    -0.65070
N2589       N  0.88588413  0.73179889  0.73436782    -0.07560
N2590       N  0.89899235  0.70544805  0.73672506    -0.65740
N2591       N  0.85901127  0.73317752  0.75328210    -0.08270
N2592       N  0.85318402  0.70714280  0.76772145    -0.65330
N2593       N  0.85748149  0.76603140  0.67546207    -0.07160
N2594       N  0.85368412  0.75123138  0.64488760    -0.66020
Mn2595     Mn  0.82818598  0.77371496  0.75356083     1.10660
C2596       C  0.82317773  0.74241822  0.64595751     0.96960
C2597       C  0.87879687  0.69049088  0.75789864     0.97030
N2598       N  0.96373861  0.78529890  0.74388795    -0.08270
N2599       N  0.99164683  0.77704700  0.75684216    -0.63650
N2600       N  0.91949783  0.80944140  0.67192345    -0.07590
N2601       N  0.91563090  0.81959774  0.63893049    -0.60380
N2602       N  0.93313533  0.83009881  0.69186432    -0.08900
N2603       N  0.93879163  0.85413446  0.67358445    -0.63210
N2604       N  0.95111951  0.76350200  0.72527576    -0.07890
N2605       N  0.96992849  0.73988264  0.72519191    -0.60400
Mn2606     Mn  0.93674795  0.82742568  0.74948385     1.20190
Mn2607     Mn  0.90384689  0.76766026  0.70036075     1.10090
Cl2608     Cl  0.88258741  0.80036621  0.74937404    -0.88370
C2609       C  0.99524157  0.74851811  0.74492063     0.93960
C2610       C  0.92765911  0.84779671  0.64083143     0.93760
N2611       N  0.57929984  0.65445379  0.81601008    -0.08530
N2612       N  0.55879086  0.64949459  0.84271886    -0.60650
N2613       N  0.56695808  0.71394856  0.77299151    -0.08210
N2614       N  0.54853338  0.73780486  0.77207484    -0.62770
N2615       N  0.55370911  0.69171018  0.75530291    -0.07800
N2616       N  0.52584321  0.70000934  0.74229670    -0.60620
N2617       N  0.60135633  0.67222983  0.82806867    -0.07480
N2618       N  0.59904260  0.67689405  0.86236131    -0.63130
C2619       C  0.57250888  0.66341345  0.87169291     0.93650
C2620       C  0.52296099  0.72897840  0.75285084     0.93430
N2621       N  0.65782074  0.74561280  0.75251786    -0.08710
N2622       N  0.66038770  0.77086119  0.73507458    -0.61220
N2623       N  0.66020044  0.70404744  0.82605003    -0.06830
N2624       N  0.66201616  0.69214782  0.85797477    -0.62480
N2625       N  0.68671321  0.69947088  0.80789598    -0.08740
N2626       N  0.70673048  0.68372217  0.82709014    -0.61490
N2627       N  0.63044217  0.74524861  0.76940876    -0.06470
N2628       N  0.61351964  0.76895918  0.76354549    -0.62560
Mn2629     Mn  0.61459951  0.70951741  0.79924426     1.18440
C2630       C  0.63201014  0.78470168  0.74178247     0.95730
C2631       C  0.69081138  0.67937533  0.85826077     0.96400
N2632       N  0.57928973  0.64046181  0.69640345    -0.08760
N2633       N  0.55782460  0.62421285  0.67949374    -0.65070
N2634       N  0.63491928  0.60652773  0.73508404    -0.07560
N2635       N  0.64788063  0.58005018  0.73632070    -0.65740
N2636       N  0.60878265  0.60777399  0.75508202    -0.08270
N2637       N  0.60305848  0.58161499  0.76917579    -0.65330
N2638       N  0.60572331  0.64084045  0.67693466    -0.07160
N2639       N  0.60229669  0.62514385  0.64701339    -0.66020
Mn2640     Mn  0.57878179  0.64813235  0.75566416     1.10660
C2641       C  0.57267474  0.61416231  0.64923660     0.96960
C2642       C  0.62820681  0.56495888  0.75798074     0.97030
N2643       N  0.71169269  0.66027197  0.74422478    -0.08270
N2644       N  0.73907636  0.65053603  0.75711029    -0.63650
N2645       N  0.66725956  0.68479327  0.67236177    -0.07590
N2646       N  0.66319560  0.69482341  0.63928769    -0.60380
N2647       N  0.68142916  0.70542381  0.69188333    -0.08900
N2648       N  0.68704842  0.72930240  0.67331600    -0.63210
N2649       N  0.69762133  0.63878568  0.72647448    -0.07890
N2650       N  0.71423197  0.61400224  0.72754617    -0.60400
Mn2651     Mn  0.68618614  0.70350723  0.74943535     1.20190
Mn2652     Mn  0.65167436  0.64302532  0.70134338     1.10090
Cl2653     Cl  0.63249905  0.67609946  0.75074859    -0.88370
C2654       C  0.73981851  0.62127733  0.74708691     0.93960
C2655       C  0.67549987  0.72296354  0.64076097     0.93760
N2656       N  0.68011689  0.94749468  0.81244781    -0.08530
N2657       N  0.70326915  0.94884630  0.83662273    -0.60650
N2658       N  0.69187084  0.88642956  0.77350855    -0.08210
N2659       N  0.71150271  0.86347176  0.77662789    -0.62770
N2660       N  0.70549736  0.90713866  0.75411635    -0.07800
N2661       N  0.73502850  0.89899383  0.74501780    -0.60620
N2662       N  0.65613342  0.93328476  0.82661387    -0.07480
N2663       N  0.65992470  0.92904304  0.86068581    -0.63130
C2664       C  0.68946599  0.93754762  0.86687186     0.93650
C2665       C  0.73836470  0.87122854  0.75851857     0.93430
N2666       N  0.60030606  0.85453948  0.75578153    -0.08710
N2667       N  0.59878142  0.82944571  0.73694149    -0.61220
N2668       N  0.59686245  0.90060364  0.82724230    -0.06830
N2669       N  0.59480824  0.91322733  0.85920027    -0.62480
N2670       N  0.57047811  0.90496899  0.80954866    -0.08740
N2671       N  0.55056224  0.92198242  0.82889385    -0.61490
N2672       N  0.62751826  0.85559034  0.77241971    -0.06470
N2673       N  0.64522181  0.83231448  0.76507681    -0.62560
Mn2674     Mn  0.64316864  0.89330724  0.80018497     1.18440
C2675       C  0.62742398  0.81625251  0.74253310     0.95730
C2676       C  0.56626157  0.92667358  0.86006788     0.96400
N2677       N  0.67794899  0.95431056  0.69112382    -0.08760
N2678       N  0.69770909  0.97014226  0.67094283    -0.65070
N2679       N  0.62252654  0.49124128  0.73254541    -0.07560
N2680       N  0.60882965  0.51742167  0.73581970    -0.65740
N2681       N  0.64920768  0.49065603  0.75105864    -0.08270
N2682       N  0.65435396  0.51680412  0.76635669    -0.65330
N2683       N  0.65062161  0.95142080  0.67408039    -0.07160
N2684       N  0.65190172  0.96393546  0.64257400    -0.66020
Mn2685     Mn  0.67966475  0.95050795  0.75164909     1.10660
C2686       C  0.68097273  0.97572625  0.64074549     0.96960
C2687       C  0.62854701  0.53290301  0.75737349     0.97030
N2688       N  0.54448592  0.93783362  0.74430286    -0.08270
N2689       N  0.51631809  0.94679532  0.75679909    -0.63650
N2690       N  0.58982714  0.91036183  0.67401830    -0.07590
N2691       N  0.59275832  0.90024528  0.64064904    -0.60380
N2692       N  0.57705689  0.88970968  0.69385750    -0.08900
N2693       N  0.57158085  0.86542047  0.67477149    -0.63210
N2694       N  0.55767415  0.95882315  0.72547537    -0.07890
N2695       N  0.53900121  0.48248044  0.72454291    -0.60400
Mn2696     Mn  0.57139374  0.89584645  0.75141016     1.20190
Mn2697     Mn  0.60495036  0.95309029  0.70056538     1.10090
Cl2698     Cl  0.62507647  0.92311338  0.75032701    -0.88370
C2699       C  0.51319574  0.97478871  0.74417818     0.93960
C2700       C  0.58151035  0.87179134  0.64132172     0.93760
N2701       N  0.68804513  0.53534825  0.44707319    -0.08530
N2702       N  0.68254239  0.55925257  0.42819626    -0.60650
N2703       N  0.67004097  0.96783736  0.47867897    -0.08210
N2704       N  0.65040255  0.94488929  0.47696311    -0.62770
N2705       N  0.65813262  0.98886122  0.49935964    -0.07800
N2706       N  0.62988357  0.98075204  0.51214632    -0.60620
N2707       N  0.70090470  0.01434724  0.42655461    -0.07480
N2708       N  0.70451904  0.52379624  0.39332277    -0.63130
C2709       C  0.69320959  0.55203233  0.39488369     0.93650
C2710       C  0.62537170  0.95312304  0.49791613     0.93430
N2711       N  0.76167900  0.93628636  0.49995823    -0.08710
N2712       N  0.76538959  0.91084609  0.51648790    -0.61220
N2713       N  0.76172298  0.97089480  0.42349141    -0.06830
N2714       N  0.76435156  0.95437831  0.39391311    -0.62480
N2715       N  0.78905265  0.97179428  0.44075509    -0.08740
N2716       N  0.81028531  0.95578186  0.42287709    -0.61490
N2717       N  0.73481585  0.93554200  0.48167331    -0.06470
N2718       N  0.71987791  0.91024073  0.48552799    -0.62560
Mn2719     Mn  0.71661883  0.97236007  0.45160479     1.18440
C2720       C  0.73898328  0.89521081  0.50716617     0.95730
C2721       C  0.79449682  0.94457938  0.39440848     0.96400
N2722       N  0.68873809  0.52199064  0.56502456    -0.08760
N2723       N  0.67094604  0.50384538  0.58438412    -0.65070
N2724       N  0.73890500  0.57351516  0.52845242    -0.07560
N2725       N  0.75252420  0.59959169  0.52689982    -0.65740
N2726       N  0.71160160  0.57293732  0.51194237    -0.08270
N2727       N  0.70606533  0.59916311  0.49794495    -0.65330
N2728       N  0.71620116  0.52617194  0.58108942    -0.07160
N2729       N  0.71726942  0.51160749  0.61141138    -0.66020
Mn2730     Mn  0.68505181  0.53070427  0.50629176     1.10660
C2731       C  0.68914689  0.49770205  0.61323319     0.96960
C2732       C  0.73188553  0.61528428  0.50793338     0.97030
N2733       N  0.81741825  0.52181048  0.49999673    -0.08270
N2734       N  0.84528719  0.53089296  0.48692446    -0.63650
N2735       N  0.77868451  0.99876327  0.57593623    -0.07590
N2736       N  0.78696420  0.00298112  0.60903423    -0.60380
N2737       N  0.79774665  0.98030127  0.55900595    -0.08900
N2738       N  0.82174349  0.97360118  0.58054136    -0.63210
N2739       N  0.80463388  0.54310692  0.52019064    -0.08530
N2740       N  0.82329118  0.56683567  0.52097131    -0.60400
Mn2741     Mn  0.79265082  0.97706872  0.49952769     1.20190
Mn2742     Mn  0.75942060  0.53592967  0.55123848     1.10090
Cl2743     Cl  0.73872063  0.00412184  0.50155451    -0.88370
C2744       C  0.84857366  0.55921586  0.50004559     0.93960
C2745       C  0.81362531  0.98759782  0.61202981     0.93760
N2746       N  0.69257898  0.79029550  0.44915519    -0.08530
N2747       N  0.69085679  0.81646074  0.43392681    -0.60650
N2748       N  0.67125854  0.71909396  0.47200738    -0.08210
N2749       N  0.65271004  0.69517186  0.47021205    -0.62770
N2750       N  0.65873485  0.73907683  0.49375641    -0.07800
N2751       N  0.63133541  0.72929670  0.50708856    -0.60620
N2752       N  0.70575123  0.77073972  0.42707020    -0.07480
N2753       N  0.71283906  0.78357628  0.39635182    -0.63130
C2754       C  0.70372915  0.81248299  0.40083295     0.93650
C2755       C  0.62765822  0.70179178  0.49217361     0.93430
N2756       N  0.76177827  0.68639314  0.49408894    -0.08710
N2757       N  0.76461381  0.66051098  0.50949359    -0.61220
N2758       N  0.76598972  0.72810897  0.42213050    -0.06830
N2759       N  0.77019135  0.71703208  0.38954149    -0.62480
N2760       N  0.79260898  0.72638143  0.44049011    -0.08740
N2761       N  0.81511138  0.71380896  0.42030893    -0.61490
N2762       N  0.73593071  0.68654656  0.47410285    -0.06470
N2763       N  0.72065027  0.66112295  0.47582610    -0.62560
Mn2764     Mn  0.71921041  0.72609989  0.44746108     1.18440
C2765       C  0.73880748  0.64531139  0.49784059     0.95730
C2766       C  0.80073217  0.70826790  0.38869076     0.96400
N2767       N  0.68509573  0.76787277  0.56340236    -0.08760
N2768       N  0.66647011  0.74889342  0.58095083    -0.65070
N2769       N  0.73879201  0.82211647  0.53446369    -0.07560
N2770       N  0.75268268  0.84823910  0.53500546    -0.65740
N2771       N  0.71159083  0.82251598  0.51774598    -0.08270
N2772       N  0.70643469  0.84942345  0.50569817    -0.65330
N2773       N  0.71147286  0.77260500  0.58131280    -0.07160
N2774       N  0.71066044  0.75824695  0.61156628    -0.66020
Mn2775     Mn  0.68522961  0.78060641  0.50625320     1.10660
C2776       C  0.68300992  0.74333319  0.61120514     0.96960
C2777       C  0.73217421  0.86500715  0.51706191     0.97030
N2778       N  0.81716613  0.76941482  0.50518513    -0.08270
N2779       N  0.84459894  0.77842857  0.49135115    -0.63650
N2780       N  0.77229630  0.74243194  0.57680016    -0.07590
N2781       N  0.77748458  0.74458618  0.61099876    -0.60380
N2782       N  0.79372302  0.72616334  0.56020961    -0.08900
N2783       N  0.81663107  0.71999854  0.58341110    -0.63210
N2784       N  0.80449461  0.79019823  0.52615548    -0.07890
N2785       N  0.82325786  0.81392788  0.52666725    -0.60400
Mn2786     Mn  0.79252011  0.72637872  0.49987033     1.20190
Mn2787     Mn  0.75704073  0.78252772  0.55470112     1.10090
Cl2788     Cl  0.73870783  0.75396511  0.50161033    -0.88370
C2789       C  0.84819073  0.80633610  0.50484730     0.93960
C2790       C  0.80523621  0.73137974  0.61525565     0.93760
N2791       N  0.94395723  0.66412759  0.44885881    -0.08530
N2792       N  0.94255917  0.68977181  0.43232971    -0.60650
N2793       N  0.92138566  0.59493784  0.47539922    -0.08210
N2794       N  0.90199424  0.57177876  0.47274594    -0.62770
N2795       N  0.90944425  0.61526588  0.49705480    -0.07800
N2796       N  0.88124733  0.60639019  0.50942562    -0.60620
N2797       N  0.95656770  0.64363849  0.42753223    -0.07480
N2798       N  0.96337467  0.65532404  0.39598963    -0.63130
C2799       C  0.95498591  0.68456208  0.39923384     0.93650
C2800       C  0.87684586  0.57905383  0.49398081     0.93430
N2801       N  0.51041956  0.56059723  0.49963435    -0.08710
N2802       N  0.51288566  0.53479641  0.51546839    -0.61220
N2803       N  0.51471389  0.59662947  0.42424977    -0.06830
N2804       N  0.51725452  0.58048209  0.39438522    -0.62480
N2805       N  0.54140180  0.59555618  0.44265842    -0.08740
N2806       N  0.56211036  0.57856471  0.42519626    -0.61490
N2807       N  0.48434844  0.56082084  0.47994815    -0.06470
N2808       N  0.96864703  0.53569174  0.48227595    -0.62560
Mn2809     Mn  0.96884735  0.59934906  0.45055569     1.18440
C2810       C  0.48659712  0.51985793  0.50441984     0.95730
C2811       C  0.54654813  0.56873109  0.39581918     0.96400
N2812       N  0.93938690  0.64724949  0.56544188    -0.08760
N2813       N  0.92135903  0.62911894  0.58457521    -0.65070
N2814       N  0.49192922  0.69854731  0.53078680    -0.07560
N2815       N  0.50574895  0.72460052  0.52996094    -0.65740
N2816       N  0.96431822  0.69851578  0.51499928    -0.08270
N2817       N  0.95873742  0.72501338  0.50205765    -0.65330
N2818       N  0.96639605  0.65202793  0.58221349    -0.07160
N2819       N  0.96676929  0.63812365  0.61296247    -0.66020
Mn2820     Mn  0.93738521  0.65686115  0.50699300     1.10660
C2821       C  0.93895855  0.62374967  0.61415837     0.96960
C2822       C  0.98476518  0.74074750  0.51200333     0.97030
N2823       N  0.56920279  0.64402432  0.50302908    -0.08270
N2824       N  0.59662608  0.65284614  0.48847196    -0.63650
N2825       N  0.52664319  0.62228534  0.57749540    -0.07590
N2826       N  0.53082292  0.62419905  0.61180462    -0.60380
N2827       N  0.54503537  0.60249777  0.56209255    -0.08900
N2828       N  0.56484371  0.59224326  0.58668156    -0.63210
N2829       N  0.55671184  0.66582327  0.52265567    -0.07890
N2830       N  0.57526369  0.68959462  0.52173192    -0.60400
Mn2831     Mn  0.54293541  0.60011347  0.50179313     1.20190
Mn2832     Mn  0.51060428  0.66027484  0.55301982     1.10090
Cl2833     Cl  0.49018316  0.62912738  0.50261617    -0.88370
C2834       C  0.60011050  0.68149956  0.50031745     0.93960
C2835       C  0.55447372  0.60579643  0.61784405     0.93760
N2836       N  0.93705575  0.91095525  0.44780975    -0.08530
N2837       N  0.93142808  0.93530610  0.42989562    -0.60650
N2838       N  0.91999178  0.84174282  0.47626252    -0.08210
N2839       N  0.90098932  0.81819717  0.47524481    -0.62770
N2840       N  0.90763684  0.86243779  0.49712349    -0.07800
N2841       N  0.88003683  0.85360036  0.51077827    -0.60620
N2842       N  0.95032743  0.89067625  0.42667175    -0.07480
N2843       N  0.95427559  0.90098131  0.39400312    -0.63130
C2844       C  0.94263210  0.92897048  0.39659128     0.93650
C2845       C  0.87605006  0.82587693  0.49691573     0.93430
N2846       N  0.51297966  0.81204143  0.49582743    -0.08710
N2847       N  0.51706009  0.78651519  0.51182732    -0.61220
N2848       N  0.51313719  0.85160693  0.42230848    -0.06830
N2849       N  0.51714619  0.84007716  0.38989602    -0.62480
N2850       N  0.54039037  0.85188365  0.43970123    -0.08740
N2851       N  0.56309174  0.84023448  0.41908547    -0.61490
N2852       N  0.98637702  0.81119280  0.47713616    -0.06470
N2853       N  0.97189225  0.78559053  0.48017940    -0.62560
Mn2854     Mn  0.96705895  0.84866148  0.44944030     1.18440
C2855       C  0.49116743  0.77065461  0.50170649     0.95730
C2856       C  0.54822818  0.83316305  0.38821627     0.96400
N2857       N  0.93542588  0.89305607  0.56378791    -0.08760
N2858       N  0.91736623  0.87400623  0.58186031    -0.65070
N2859       N  0.48651102  0.94704670  0.53200713    -0.07560
N2860       N  0.49993037  0.97329358  0.53219947    -0.65740
N2861       N  0.95951464  0.94682228  0.51481698    -0.08270
N2862       N  0.95405525  0.97354664  0.50213635    -0.65330
N2863       N  0.96225893  0.89774819  0.58086407    -0.07160
N2864       N  0.96237785  0.88320912  0.61101397    -0.66020
Mn2865     Mn  0.93345992  0.90426940  0.50619349     1.10660
C2866       C  0.93469542  0.86833775  0.61144977     0.96960
C2867       C  0.97950216  0.98956931  0.51364771     0.97030
N2868       N  0.56593834  0.89702506  0.50274751    -0.08270
N2869       N  0.59367067  0.90621015  0.48993808    -0.63650
N2870       N  0.52566154  0.87028369  0.57646432    -0.07590
N2871       N  0.53363507  0.87390329  0.60982223    -0.60380
N2872       N  0.54627395  0.85381481  0.55875217    -0.08900
N2873       N  0.57096938  0.84860847  0.57991973    -0.63210
N2874       N  0.55301854  0.91756558  0.52386508    -0.07890
N2875       N  0.57174609  0.94126920  0.52548768    -0.60400
Mn2876     Mn  0.54253739  0.85305625  0.49895285     1.20190
Mn2877     Mn  0.50674744  0.90871762  0.55325593     1.10090
Cl2878     Cl  0.48787505  0.87878637  0.50102479    -0.88370
C2879       C  0.59698615  0.93396277  0.50412419     0.93960
C2880       C  0.56179162  0.86080906  0.61208466     0.93760
loop_ 
_geom_bond_atom_site_label_1 
_geom_bond_atom_site_label_2 
_geom_bond_distance 
_geom_bond_site_symmetry_2 
_ccdc_geom_bond_type 
N1            N2   1.340       .  A
N1            N7   1.306       .  A
N1          Mn30   2.289       .  S
N2            C9   1.374       .  A
N3            N5   1.317       .  A
N3            N4   1.328       .  A
N3          Mn19   2.269       .  S
N4           C10   1.357       .  A
N5            N6   1.330       .  A
N5          Mn30   2.225       .  S
N6           C10   1.363       .  A
N7            N8   1.303       .  A
N7          Mn19   2.114       .  S
N8            C9   1.321       .  A
C9          C639   1.473       .  S
C10        C1539   1.503       .  S
N11          N17   1.308       .  A
N11          N12   1.323       .  A
N11         Mn41   2.227       .  S
N12          C20   1.362       .  A
N13          N14   1.321       .  A
N13          N15   1.313       .  A
N13         Mn19   2.193       .  S
N14          C21   1.344       .  A
N15          N16   1.323       .  A
N15         Mn41   2.183       .  S
N16          C21   1.352       .  A
N17          N18   1.307       .  A
N17         Mn19   2.093       .  S
N18          C20   1.334       .  A
Mn19        Cl43   2.449       .  S
C20          C54   1.431       .  S
C21         C606   1.466       .  S
N22          N23   1.329       .  A
N22          N28   1.325       .  A
N22         Mn30   2.262       .  S
N23          C31   1.360       .  A
N24          N26   1.326       .  A
N24          N25   1.313       .  A
N24         Mn42   2.196       .  S
N25          C32   1.342       .  A
N26          N27   1.324       .  A
N26         Mn30   2.246       .  S
N27          C32   1.358       .  A
N28          N29   1.316       .  A
N28         Mn42   2.169       .  S
N29          C31   1.337       .  A
Mn30        Cl43   2.606       .  S
C31         C324   1.471       .  S
C32          C90   1.451       .  S
N33          N34   1.330       .  A
N33          N39   1.310       .  A
N33         Mn41   2.233       .  S
N34          C44   1.363       .  A
N35          N36   1.329       .  A
N35          N37   1.315       .  A
N35         Mn42   2.241       .  S
N36          C45   1.362       .  A
N37          N38   1.313       .  A
N37         Mn41   2.171       .  S
N38          C45   1.345       .  A
N39          N40   1.325       .  A
N39         Mn42   2.212       .  S
N40          C44   1.353       .  A
Mn41        Cl43   2.589       .  S
Mn42        Cl43   2.471       .  S
C44         C144   1.499       .  S
C45         C189   1.466       .  S
N46          N47   1.322       .  A
N46          N52   1.308       .  A
N46        Mn795   2.231   1_545  S
N47          C54   1.360       .  A
N48          N50   1.312       .  A
N48          N49   1.314       .  A
N48         Mn64   2.182       .  S
N49          C55   1.340       .  A
N50          N51   1.328       .  A
N50         Mn75   2.203       .  S
N51          C55   1.359       .  A
N52          N53   1.308       .  A
N52        Mn784   2.087   1_545  S
N53          C54   1.336       .  A
C55         C684   1.464       .  S
N56          N62   1.308       .  A
N56          N57   1.333       .  A
N56         Mn86   2.259       .  S
N57          C65   1.368       .  A
N58          N60   1.317       .  A
N58         N779   1.326       .  A
N58         Mn64   2.254       .  S
N59         N778   1.326   1_545  A
N59          C66   1.355   1_545  A
N60          N61   1.327       .  A
N60         Mn86   2.213       .  S
N61         C786   1.361       .  A
N62          N63   1.301       .  A
N62         Mn64   2.120       .  S
N63          C65   1.322       .  A
Mn64        N772   2.087       .  S
Mn64        Cl88   2.439       .  S
C65         C561   1.457       .  S
C66         N781   1.361       .  A
C66         C135   1.494   1_565  S
N67          N68   1.331       .  A
N67          N73   1.309       .  A
N67         Mn75   2.247       .  S
N68          C76   1.367       .  A
N69          N71   1.311       .  A
N69          N70   1.326       .  A
N69         Mn87   2.237       .  S
N70          C77   1.366       .  A
N71          N72   1.318       .  A
N71         Mn75   2.170       .  S
N72          C77   1.349       .  A
N73          N74   1.319       .  A
N73         Mn87   2.169       .  S
N74          C76   1.344       .  A
Mn75        N766   2.231       .  S
Mn75        Cl88   2.570       .  S
C76        C1620   1.483       .  S
C77        C1011   1.454       .  S
N78          N79   1.326       .  A
N78          N84   1.320       .  A
N78         Mn86   2.245       .  S
N79          C89   1.359       .  A
N80          N81   1.316       .  A
N80          N82   1.321       .  A
N80         Mn87   2.199       .  S
N81          C90   1.346       .  A
N82          N83   1.322       .  A
N82         Mn86   2.226       .  S
N83          C90   1.357       .  A
N84          N85   1.315       .  A
N84         Mn87   2.138       .  S
N85          C89   1.334       .  A
Mn86        Cl88   2.595       .  S
Mn87        Cl88   2.463       .  S
C89         C234   1.463       .  S
N91          N92   1.327       .  A
N91          N97   1.318       .  A
N91        Mn120   2.263       .  S
N92          C99   1.355       .  A
N93          N95   1.307       .  A
N93          N94   1.334       .  A
N93        Mn109   2.267       .  S
N94         C100   1.370       .  A
N95          N96   1.301       .  A
N95        Mn120   2.111       .  S
N96         C100   1.321       .  A
N97          N98   1.331       .  A
N97        Mn109   2.229       .  S
N98          C99   1.363       .  A
C99        C1450   1.503   1_455  S
C100        C651   1.459       .  S
N101        N107   1.324       .  A
N101        N102   1.315       .  A
N101       Mn851   2.205       .  S
N102        C110   1.347       .  A
N103        N104   1.330       .  A
N103        N105   1.323       .  A
N103       Mn109   2.257       .  S
N104        C111   1.360       .  A
N105        N106   1.318       .  A
N105       Mn131   2.167       .  S
N106        C111   1.338       .  A
N107        N108   1.320       .  A
N107       Mn829   2.220       .  S
N108        C110   1.353       .  A
Mn109       N827   2.220   1_545  S
Mn109      Cl133   2.603       .  S
C110        C155   1.444       .  S
C111        C999   1.476   1_545  S
N112        N113   1.316       .  A
N112        N118   1.313       .  A
N112       Mn120   2.189       .  S
N113        C121   1.340       .  A
N114        N116   1.306       .  A
N114        N115   1.322       .  A
N114       Mn132   2.219       .  S
N115        C122   1.359       .  A
N116        N117   1.306       .  A
N116       Mn120   2.078       .  S
N117        C122   1.335       .  A
N118        N119   1.332       .  A
N118       Mn132   2.222       .  S
N119        C121   1.362       .  A
Mn120      Cl133   2.446       .  S
C121        C549   1.478       .  S
C122        C167   1.425       .  S
N123        N124   1.330       .  A
N123        N129   1.314       .  A
N123       Mn131   2.253       .  S
N124        C134   1.368       .  A
N125        N126   1.329       .  A
N125        N127   1.310       .  A
N125       Mn132   2.223       .  S
N126        C135   1.361       .  A
N127        N848   1.325       .  A
N127       Mn131   2.211       .  S
N128        N847   1.325       .  A
N128        C855   1.353       .  A
N129        N130   1.319       .  A
N129       Mn132   2.195       .  S
N130        C134   1.352       .  A
Mn131       N821   2.205   1_545  S
Mn131      Cl133   2.484       .  S
Mn132      Cl133   2.567       .  S
C134        C201   1.470       .  S
C135        N848   1.353       .  A
N136        N137   1.327       .  A
N136        N142   1.319       .  A
N136       Mn165   2.264       .  S
N137        C144   1.356       .  A
N138        N140   1.305       .  A
N138        N139   1.337       .  A
N138       Mn154   2.273       .  S
N139        C145   1.371       .  A
N140        N141   1.302       .  A
N140       Mn165   2.111       .  S
N141        C145   1.323       .  A
N142        N143   1.328       .  A
N142       Mn154   2.227       .  S
N143        C144   1.362       .  A
C145        C594   1.465       .  S
N146        N152   1.324       .  A
N146        N147   1.313       .  A
N146       Mn176   2.203       .  S
N147        C155   1.345       .  A
N148        N149   1.323       .  A
N148        N150   1.322       .  A
N148       Mn154   2.249       .  S
N149        C156   1.359       .  A
N150        N151   1.322       .  A
N150       Mn176   2.129       .  S
N151        C156   1.337       .  A
N152        N153   1.321       .  A
N152       Mn154   2.219       .  S
N153        C155   1.355       .  A
Mn154      Cl178   2.590       .  S
C156        C246   1.459       .  S
N157        N158   1.320       .  A
N157        N163   1.314       .  A
N157       Mn165   2.197       .  S
N158        C166   1.344       .  A
N159        N161   1.306       .  A
N159        N160   1.320       .  A
N159       Mn177   2.206       .  S
N160        C167   1.357       .  A
N161        N162   1.309       .  A
N161       Mn165   2.098       .  S
N162        C167   1.337       .  A
N163        N164   1.322       .  A
N163       Mn177   2.179       .  S
N164        C166   1.352       .  A
Mn165      Cl178   2.440       .  S
C166        C696   1.464       .  S
N168        N169   1.330       .  A
N168        N174   1.313       .  A
N168       Mn176   2.268       .  S
N169        C179   1.372       .  A
N170        N171   1.331       .  A
N170        N172   1.307       .  A
N170       Mn177   2.238       .  S
N171        C180   1.366       .  A
N172        N173   1.319       .  A
N172       Mn176   2.164       .  S
N173        C180   1.343       .  A
N174        N175   1.316       .  A
N174       Mn177   2.162       .  S
N175        C179   1.346       .  A
Mn176      Cl178   2.472       .  S
Mn177      Cl178   2.576       .  S
C179        C336   1.460       .  S
C180       C1516   1.482   1_455  S
N181        N182   1.330       .  A
N181        N187   1.313       .  A
N181       Mn210   2.208       .  S
N182        C189   1.357       .  A
N183        N185   1.311       .  A
N183        N184   1.309       .  A
N183       Mn199   2.102       .  S
N184        C910   1.336       .  A
N185        N186   1.322   1_554  A
N185       Mn210   2.226       .  S
N186        C910   1.359   1_556  A
N187        N188   1.314       .  A
N187       Mn199   2.181       .  S
N188        C189   1.343       .  A
C190        N904   1.336       .  A
C190        N906   1.359   1_554  A
C190        C269   1.440       .  S
N191        N197   1.319       .  A
N191        N192   1.320   1_554  A
N191       Mn221   2.188   1_554  S
N192        C200   1.353   1_556  A
N193        N194   1.304       .  A
N193        N195   1.309       .  A
N193       Mn199   2.121       .  S
N194        C201   1.324       .  A
N195        N196   1.338       .  A
N195       Mn221   2.274   1_554  S
N196        C201   1.370       .  A
N197        N198   1.328       .  A
N197       Mn199   2.270       .  S
N198        C200   1.358       .  A
Mn199      Cl223   2.462   1_554  S
C200        C302   1.482   1_554  S
N202        N203   1.318       .  A
N202        N208   1.316       .  A
N202       Mn210   2.204   1_556  S
N203        C211   1.351       .  A
N204        N206   1.308       .  A
N204        N205   1.322       .  A
N204       Mn222   2.186       .  S
N205        C212   1.349       .  A
N206        N207   1.324   1_556  A
N206       Mn210   2.204   1_556  S
N207        C212   1.358   1_554  A
N208        N209   1.326       .  A
N208       Mn222   2.216       .  S
N209        C211   1.356       .  A
Mn210      Cl223   2.564   1_554  S
C211        C381   1.469       .  S
C212        C347   1.470       .  S
N213        N214   1.319   1_556  A
N213        N219   1.322       .  A
N213       Mn221   2.221       .  S
N214        C224   1.357   1_554  A
N215        N216   1.317       .  A
N215        N217   1.322       .  A
N215       Mn222   2.150       .  S
N216        C225   1.337       .  A
N217        N218   1.328       .  A
N217       Mn221   2.255       .  S
N218        C225   1.358       .  A
N219        N220   1.310       .  A
N219       Mn222   2.160       .  S
N220        C224   1.336       .  A
Mn221      Cl223   2.586       .  S
Mn222      Cl223   2.488       .  S
C224        C235   1.437   1_556  S
C225        C471   1.471       .  S
N226        N227   1.325       .  A
N226        N232   1.314       .  A
N226       Mn255   2.207       .  S
N227        C234   1.358       .  A
N228        N230   1.309       .  A
N228        N229   1.310       .  A
N228       Mn244   2.082       .  S
N229        C235   1.336       .  A
N230        N231   1.319   1_554  A
N230       Mn255   2.231       .  S
N231        C235   1.358   1_556  A
N232        N233   1.317       .  A
N232       Mn244   2.178       .  S
N233        C234   1.336       .  A
N236        N242   1.320       .  A
N236        N237   1.331   1_554  A
N236       Mn266   2.245       .  S
N237        C245   1.364   1_556  A
N238        N239   1.299       .  A
N238        N240   1.302       .  A
N238       Mn244   2.093       .  S
N239        C246   1.315       .  A
N240        N241   1.336       .  A
N240       Mn266   2.269       .  S
N241        C246   1.375       .  A
N242        N243   1.329       .  A
N242       Mn244   2.275       .  S
N243        C245   1.359       .  A
Mn244      Cl268   2.468       .  S
C245        C335   1.509       .  S
N247        N248   1.318       .  A
N247        N253   1.315       .  A
N247       Mn255   2.189   1_556  S
N248        C256   1.351       .  A
N249        N251   1.309       .  A
N249        N250   1.327       .  A
N249       Mn267   2.195       .  S
N250        C257   1.350       .  A
N251        N252   1.333   1_556  A
N251       Mn255   2.259   1_556  S
N252        C257   1.368   1_554  A
N253        N254   1.327       .  A
N253       Mn267   2.245       .  S
N254        C256   1.367       .  A
Mn255      Cl268   2.553       .  S
C256        C414   1.460       .  S
C257        C290   1.509   1_556  S
N258        N259   1.317   1_556  A
N258        N264   1.325       .  A
N258       Mn266   2.234   1_556  S
N259        C269   1.356       .  A
N260        N261   1.324       .  A
N260        N262   1.324       .  A
N260       Mn267   2.151       .  S
N261        C270   1.339       .  A
N262        N263   1.322       .  A
N262       Mn266   2.243   1_556  S
N263        C270   1.356       .  A
N264        N265   1.314       .  A
N264       Mn267   2.172       .  S
N265        C269   1.340   1_556  A
Mn266      Cl268   2.586       .  S
Mn267      Cl268   2.506   1_556  S
C270        C504   1.465       .  S
N271        N272   1.325       .  A
N271        N277   1.314       .  A
N271       Mn300   2.213       .  S
N272        C279   1.357       .  A
N273        N275   1.305       .  A
N273       N1714   1.309   1_455  A
N273      Mn1729   2.090   1_455  S
N274       N1713   1.309       .  A
N274       C1720   1.335   1_554  A
N275        N276   1.323   1_554  A
N275       Mn300   2.218       .  S
N276        C280   1.361       .  A
N277        N278   1.323       .  A
N277      Mn1729   2.183   1_455  S
N278        C279   1.342       .  A
C279        C831   1.476       .  S
C280       N1714   1.335   1_456  A
C280       C1765   1.433       .  S
N281        N287   1.318       .  A
N281        N282   1.335   1_554  A
N281      Mn1031   2.276       .  S
N282        C290   1.371   1_556  A
N283        N284   1.299       .  A
N283        N285   1.306   1_565  A
N283      Mn1009   2.091       .  S
N284        C291   1.321   1_565  A
N285        N286   1.335       .  A
N285       Mn311   2.258       .  S
N286        C291   1.369       .  A
N287        N288   1.324       .  A
N287       Mn289   2.231       .  S
N288        C290   1.349       .  A
Mn289      N1713   2.090       .  S
Mn289      N1717   2.183       .  S
Mn289      N1003   2.091       .  S
Mn289     Cl1033   2.462       .  S
C291        C797   1.454   1_545  S
N292        N293   1.314       .  A
N292       N1018   1.318       .  A
N292       Mn300   2.185   1_556  S
N293        C301   1.344       .  A
N294        N296   1.309       .  A
N294        N295   1.319       .  A
N294       Mn312   2.196       .  S
N295        C302   1.350       .  A
N296        N297   1.329   1_556  A
N296      Mn1020   2.207   1_546  S
N297        C302   1.359   1_554  A
N298       N1012   1.318       .  A
N298       N1019   1.334       .  A
N298       Mn312   2.273   1_565  S
N299       N1018   1.334       .  A
N299        C301   1.368       .  A
Mn300      N1016   2.207   1_554  S
Mn300     Cl2473   2.569       .  S
C301        C516   1.481       .  S
N303        N304   1.323       .  A
N303        N309   1.326   1_554  A
N303       Mn311   2.247       .  S
N304        C314   1.358       .  A
N305        N306   1.324       .  A
N305        N307   1.323       .  A
N305      Mn1752   2.159       .  S
N306        C315   1.341       .  A
N307        N308   1.320       .  A
N307       Mn311   2.231   1_556  S
N308        C315   1.355       .  A
N309       N1750   1.316       .  A
N309      Mn1752   2.211       .  S
N310       N1749   1.316       .  A
N310       C1754   1.347   1_556  A
Mn311      N1001   2.276   1_545  S
Mn311      Cl313   2.589   1_545  S
Mn312      N1745   2.159   1_455  S
Mn312      N1749   2.211       .  S
Mn312     Cl1753   2.497   1_546  S
Cl313     Mn1009   2.462       .  S
Cl313     Mn2460   2.569       .  S
Cl313     Mn1752   2.497   1_564  S
C314       N1750   1.347   1_554  A
C314       C1799   1.455       .  S
C315        C369   1.457       .  S
N316        N317   1.323       .  A
N316        N322   1.314       .  A
N316       Mn345   2.198       .  S
N317        C324   1.355       .  A
N318        N320   1.307       .  A
N318       N1759   1.306       .  A
N318      Mn1774   2.087       .  S
N319       N1758   1.306       .  A
N319       C1765   1.334   1_554  A
N320        N321   1.324   1_554  A
N320       Mn345   2.227       .  S
N321        C325   1.364       .  A
N322        N323   1.323       .  A
N322      Mn1774   2.192       .  S
N323        C324   1.343       .  A
C325       N1759   1.334   1_556  A
C325       C1720   1.433       .  S
N326        N332   1.319       .  A
N326        N327   1.333   1_554  A
N326       Mn356   2.254       .  S
N327        C335   1.366   1_556  A
N328        N329   1.300       .  A
N328        N330   1.308       .  A
N328       Mn334   2.091       .  S
N329        C336   1.320       .  A
N330        N331   1.338       .  A
N330       Mn356   2.268       .  S
N331        C336   1.369       .  A
N332        N333   1.327       .  A
N332       Mn334   2.255       .  S
N333        C335   1.354       .  A
Mn334      N1758   2.087       .  S
Mn334      N1762   2.192   1_455  S
Mn334      Cl358   2.437       .  S
N337        N338   1.313       .  A
N337        N343   1.317       .  A
N337       Mn345   2.166   1_556  S
N338        C346   1.342       .  A
N339        N341   1.308       .  A
N339        N340   1.314       .  A
N339       Mn357   2.149       .  S
N340        C347   1.339       .  A
N341        N342   1.331   1_556  A
N341       Mn345   2.232   1_556  S
N342        C347   1.366   1_554  A
N343        N344   1.333       .  A
N343       Mn357   2.278       .  S
N344        C346   1.368       .  A
Mn345     Cl1798   2.593       .  S
C346        C426   1.477       .  S
N348        N349   1.324       .  A
N348        N354   1.324   1_454  A
N348       Mn356   2.239       .  S
N349        C359   1.358       .  A
N350        N351   1.322       .  A
N350        N352   1.324       .  A
N350      Mn1797   2.133   1_455  S
N351        C360   1.337       .  A
N352        N353   1.322       .  A
N352       Mn356   2.246   1_556  S
N353        C360   1.358       .  A
N354       N1795   1.315       .  A
N354      Mn1797   2.205       .  S
N355       N1794   1.315       .  A
N355       C1799   1.345   1_556  A
Mn356      Cl358   2.604       .  S
Mn357      N1790   2.133       .  S
Mn357      N1794   2.205       .  S
Mn357     Cl1798   2.470   1_556  S
Cl358     Mn1785   2.593   1_455  S
Cl358     Mn1797   2.469   1_454  S
C359       N1795   1.345   1_454  A
C359       C1754   1.455       .  S
C360        C459   1.454       .  S
N361        N362   1.334       .  A
N361        N367   1.308       .  A
N361       Mn390   2.278       .  S
N362        C369   1.372       .  A
N363        N365   1.318       .  A
N363       N1084   1.324   1_545  A
N363       Mn379   2.239       .  S
N364       N1083   1.324       .  A
N364        C370   1.351       .  A
N365        N366   1.328       .  A
N365       Mn390   2.226       .  S
N366       C1090   1.362   1_545  A
N367        N368   1.300       .  A
N367       Mn379   2.094       .  S
N368        C369   1.320       .  A
C370       N1086   1.362       .  A
C370       C1979   1.490       .  S
N371        N377   1.306       .  A
N371        N372   1.324       .  A
N371      Mn1121   2.234       .  S
N372        C380   1.363       .  A
N373        N374   1.316       .  A
N373        N375   1.312       .  A
N373       Mn379   2.191       .  S
N374        C381   1.342       .  A
N375        N376   1.328       .  A
N375       Mn401   2.198       .  S
N376        C381   1.358       .  A
N377        N378   1.308       .  A
N377      Mn1099   2.081       .  S
N378        C380   1.334       .  A
Mn379      N1097   2.081   1_545  S
Mn379      Cl403   2.450       .  S
C380        C425   1.434       .  S
N382        N383   1.331       .  A
N382        N388   1.322       .  A
N382       Mn390   2.277       .  S
N383        C391   1.364       .  A
N384        N386   1.321       .  A
N384        N385   1.316       .  A
N384       Mn402   2.208       .  S
N385        C392   1.347       .  A
N386        N387   1.320       .  A
N386       Mn390   2.209       .  S
N387        C392   1.354       .  A
N388        N389   1.316       .  A
N388       Mn402   2.137       .  S
N389        C391   1.332       .  A
Mn390      Cl403   2.592       .  S
C391        C661   1.476       .  S
C392        C437   1.447       .  S
N393        N394   1.330       .  A
N393        N399   1.308       .  A
N393       Mn401   2.240       .  S
N394        C404   1.366       .  A
N395        N396   1.324       .  A
N395        N397   1.310       .  A
N395       Mn402   2.238       .  S
N396        C405   1.367   1_545  A
N397        N398   1.317   1_545  A
N397       Mn401   2.165       .  S
N398        C405   1.349       .  A
N399        N400   1.317       .  A
N399       Mn402   2.157       .  S
N400        C404   1.342       .  A
Mn401      N1091   2.234   1_545  S
Mn401      Cl403   2.582       .  S
Mn402      Cl403   2.453       .  S
C404        C494   1.474       .  S
C405       C1305   1.452       .  S
N406        N407   1.336       .  A
N406        N412   1.306       .  A
N406       Mn435   2.261       .  S
N407        C414   1.369       .  A
N408        N410   1.318       .  A
N408        N409   1.330       .  A
N408       Mn424   2.276       .  S
N409        C415   1.359       .  A
N410        N411   1.333       .  A
N410       Mn435   2.250       .  S
N411        C415   1.366       .  A
N412        N413   1.301       .  A
N412       Mn424   2.103       .  S
N413        C414   1.323       .  A
C415        C505   1.517       .  S
N416        N422   1.307       .  A
N416        N417   1.325       .  A
N416       Mn446   2.238       .  S
N417        C425   1.363       .  A
N418        N419   1.318       .  A
N418        N420   1.313       .  A
N418       Mn424   2.207       .  S
N419        C426   1.346       .  A
N420        N421   1.331       .  A
N420       Mn446   2.193       .  S
N421        C426   1.355       .  A
N422        N423   1.307       .  A
N422       Mn424   2.081       .  S
N423        C425   1.333       .  A
Mn424      Cl448   2.467       .  S
N427        N428   1.319       .  A
N427        N433   1.325       .  A
N427       Mn435   2.239       .  S
N428        C436   1.355       .  A
N429        N431   1.327       .  A
N429        N430   1.313       .  A
N429       Mn447   2.203       .  S
N430        C437   1.344       .  A
N431        N432   1.322       .  A
N431       Mn435   2.239       .  S
N432        C437   1.356       .  A
N433        N434   1.324       .  A
N433       Mn447   2.168       .  S
N434        C436   1.342       .  A
Mn435      Cl448   2.586       .  S
C436        C630   1.460       .  S
N438        N439   1.328       .  A
N438        N444   1.309       .  A
N438       Mn446   2.216       .  S
N439        C449   1.361       .  A
N440        N441   1.335       .  A
N440        N442   1.317       .  A
N440       Mn447   2.273       .  S
N441        C450   1.368       .  A
N442        N443   1.311       .  A
N442       Mn446   2.167       .  S
N443        C450   1.341       .  A
N444        N445   1.325       .  A
N444       Mn447   2.211       .  S
N445        C449   1.353       .  A
Mn446      Cl448   2.581       .  S
Mn447      Cl448   2.490       .  S
C449       C1900   1.495       .  S
C450        C706   1.477       .  S
N451        N452   1.334       .  A
N451        N457   1.303       .  A
N451       Mn480   2.270       .  S
N452        C459   1.374       .  A
N453        N455   1.317       .  A
N453        N454   1.326       .  A
N453       Mn469   2.248       .  S
N454        C460   1.354       .  A
N455        N456   1.328       .  A
N455       Mn480   2.228       .  S
N456        C460   1.362       .  A
N457        N458   1.299       .  A
N457       Mn469   2.085       .  S
N458        C459   1.316       .  A
C460       C1889   1.495   1_455  S
N461        N467   1.307       .  A
N461        N462   1.325       .  A
N461       Mn491   2.241       .  S
N462        C470   1.364       .  A
N463        N464   1.320       .  A
N463        N465   1.313       .  A
N463       Mn469   2.186       .  S
N464        C471   1.339       .  A
N465        N466   1.325       .  A
N465       Mn491   2.198       .  S
N466        C471   1.355       .  A
N467        N468   1.306       .  A
N467       Mn469   2.081       .  S
N468        C470   1.333       .  A
Mn469      Cl493   2.449       .  S
C470        C515   1.434       .  S
N472        N473   1.320       .  A
N472        N478   1.322       .  A
N472       Mn480   2.237       .  S
N473        C481   1.357       .  A
N474        N476   1.323       .  A
N474        N475   1.313       .  A
N474       Mn492   2.202       .  S
N475        C482   1.345       .  A
N476        N477   1.321       .  A
N476       Mn480   2.212       .  S
N477        C482   1.354       .  A
N478        N479   1.322       .  A
N478       Mn492   2.145       .  S
N479        C481   1.341       .  A
Mn480      Cl493   2.591       .  S
C481        C675   1.452       .  S
C482        C527   1.444       .  S
N483        N484   1.329       .  A
N483        N489   1.308       .  A
N483       Mn491   2.228       .  S
N484        C494   1.364       .  A
N485        N486   1.337       .  A
N485        N487   1.317       .  A
N485       Mn492   2.281       .  S
N486        C495   1.370       .  A
N487        N488   1.311       .  A
N487       Mn491   2.167       .  S
N488        C495   1.341       .  A
N489        N490   1.318       .  A
N489       Mn492   2.165       .  S
N490        C494   1.343       .  A
Mn491      Cl493   2.571       .  S
Mn492      Cl493   2.481       .  S
C495        C616   1.481       .  S
N496        N497   1.335       .  A
N496        N502   1.306       .  A
N496       Mn525   2.280       .  S
N497        C504   1.372       .  A
N498        N500   1.319       .  A
N498        N499   1.330       .  A
N498       Mn514   2.286       .  S
N499        C505   1.359       .  A
N500        N501   1.333       .  A
N500       Mn525   2.238       .  S
N501        C505   1.365       .  A
N502        N503   1.303       .  A
N502       Mn514   2.114       .  S
N503        C504   1.320       .  A
N506        N512   1.307       .  A
N506        N507   1.323       .  A
N506       Mn536   2.231       .  S
N507        C515   1.361       .  A
N508        N509   1.317       .  A
N508        N510   1.313       .  A
N508       Mn514   2.205       .  S
N509        C516   1.343       .  A
N510        N511   1.334       .  A
N510       Mn536   2.206       .  S
N511        C516   1.358       .  A
N512        N513   1.309       .  A
N512       Mn514   2.086       .  S
N513        C515   1.336       .  A
Mn514      Cl538   2.444       .  S
N517        N518   1.332       .  A
N517        N523   1.324       .  A
N517       Mn525   2.275       .  S
N518        C526   1.363       .  A
N519        N521   1.324       .  A
N519        N520   1.316   1_565  A
N519      Mn1257   2.208       .  S
N520        C527   1.347       .  A
N521        N522   1.319   1_565  A
N521      Mn1245   2.216       .  S
N522        C527   1.353       .  A
N523        N524   1.316       .  A
N523       Mn537   2.151       .  S
N524        C526   1.333       .  A
Mn525      N1241   2.216       .  S
Mn525      Cl538   2.604       .  S
C526       C1291   1.478       .  S
N528        N529   1.328       .  A
N528        N534   1.309       .  A
N528       Mn536   2.225       .  S
N529        C539   1.361       .  A
N530        N531   1.326       .  A
N530        N532   1.312       .  A
N530       Mn537   2.245       .  S
N531        C540   1.367       .  A
N532        N533   1.317       .  A
N532       Mn536   2.176       .  S
N533        C540   1.351       .  A
N534       N1255   1.324       .  A
N534       Mn537   2.198       .  S
N535       N1254   1.324       .  A
N535       C1259   1.351       .  A
Mn536      Cl538   2.568       .  S
Mn537      N1239   2.208       .  S
Mn537      Cl538   2.474       .  S
C539       N1255   1.351       .  A
C539       C1810   1.490   1_455  S
C540        C720   1.458       .  S
N541        N542   1.320       .  A
N541       N1267   1.320       .  A
N541       Mn570   2.231       .  S
N542        C549   1.354       .  A
N543        N545   1.308       .  A
N543        N544   1.324       .  A
N543       Mn559   2.205       .  S
N544        C550   1.353       .  A
N545        N546   1.328       .  A
N545      Mn1290   2.211       .  S
N546        C550   1.359       .  A
N547       N1261   1.320       .  A
N547       N1268   1.328       .  A
N547       Mn559   2.229       .  S
N548       N1267   1.328       .  A
N548        C549   1.358       .  A
C550        C719   1.491       .  S
N551        N557   1.325       .  A
N551        N552   1.322       .  A
N551       Mn581   2.252       .  S
N552        C560   1.359       .  A
N553        N554   1.326       .  A
N553        N555   1.323       .  A
N553       Mn559   2.158       .  S
N554        C561   1.341       .  A
N555        N556   1.317       .  A
N555       Mn581   2.213       .  S
N556        C561   1.350       .  A
N557        N558   1.311       .  A
N557       Mn559   2.164       .  S
N558        C560   1.338       .  A
Mn559      Cl583   2.518       .  S
C560        C617   1.444       .  S
N562        N563   1.327       .  A
N562        N568   1.318       .  A
N562       Mn570   2.245       .  S
N563        C571   1.361   1_545  A
N564        N566   1.308       .  A
N564        N565   1.309       .  A
N564       Mn582   2.098       .  S
N565        C572   1.336       .  A
N566        N567   1.322       .  A
N566       Mn570   2.213       .  S
N567        C572   1.357       .  A
N568        N569   1.321       .  A
N568       Mn582   2.171       .  S
N569        C571   1.339   1_545  A
Mn570      N1265   2.211   1_545  S
Mn570     Cl1303   2.555       .  S
C571       C1246   1.478       .  S
C572        C605   1.440       .  S
N573        N574   1.331       .  A
N573        N579   1.321       .  A
N573      Mn1301   2.268   1_545  S
N574        C584   1.367       .  A
N575        N576   1.300       .  A
N575        N577   1.306       .  A
N575      Mn1302   2.093       .  S
N576        C585   1.324       .  A
N577        N578   1.334       .  A
N577       Mn581   2.239       .  S
N578        C585   1.366       .  A
N579        N580   1.326       .  A
N579       Mn582   2.242       .  S
N580        C584   1.353       .  A
Mn581      N1293   2.268       .  S
Mn581      Cl583   2.572       .  S
Mn582      N1295   2.093   1_545  S
Mn582     Cl1303   2.490       .  S
Cl583     Mn1290   2.555       .  S
Cl583     Mn1302   2.490       .  S
C584        C640   1.504       .  S
C585       C1125   1.452       .  S
N586        N587   1.321       .  A
N586        N592   1.315       .  A
N586       Mn615   2.206       .  S
N587        C594   1.355       .  A
N588        N590   1.309       .  A
N588        N589   1.331       .  A
N588       Mn604   2.230       .  S
N589        C595   1.358       .  A
N590        N591   1.328       .  A
N590       Mn615   2.222       .  S
N591        C595   1.359       .  A
N592        N593   1.327       .  A
N592       Mn604   2.238       .  S
N593        C594   1.364       .  A
C595        C674   1.507       .  S
N596        N602   1.324       .  A
N596        N597   1.316       .  A
N596       Mn626   2.225       .  S
N597        C605   1.354       .  A
N598        N599   1.319       .  A
N598        N600   1.321       .  A
N598       Mn604   2.175       .  S
N599        C606   1.342       .  A
N600        N601   1.325       .  A
N600       Mn626   2.221       .  S
N601        C606   1.352       .  A
N602        N603   1.315       .  A
N602       Mn604   2.177       .  S
N603        C605   1.342       .  A
Mn604      Cl628   2.508       .  S
N607        N608   1.336       .  A
N607        N613   1.316       .  A
N607       Mn615   2.223       .  S
N608        C616   1.361       .  A
N609        N611   1.308       .  A
N609        N610   1.314       .  A
N609       Mn627   2.098       .  S
N610        C617   1.339       .  A
N611        N612   1.319       .  A
N611       Mn615   2.226       .  S
N612        C617   1.357       .  A
N613        N614   1.313       .  A
N613       Mn627   2.198       .  S
N614        C616   1.342       .  A
Mn615      Cl628   2.550       .  S
N618        N619   1.325       .  A
N618        N624   1.319       .  A
N618       Mn626   2.205       .  S
N619        C629   1.356       .  A
N620        N621   1.302       .  A
N620        N622   1.306       .  A
N620       Mn627   2.102       .  S
N621        C630   1.321       .  A
N622        N623   1.335       .  A
N622       Mn626   2.258       .  S
N623        C630   1.370       .  A
N624        N625   1.328       .  A
N624       Mn627   2.281       .  S
N625        C629   1.361       .  A
Mn626      Cl628   2.579       .  S
Mn627      Cl628   2.476       .  S
C629        C685   1.495       .  S
N631        N632   1.322       .  A
N631        N637   1.317       .  A
N631       Mn660   2.219       .  S
N632        C639   1.355       .  A
N633        N635   1.308       .  A
N633        N634   1.327       .  A
N633       Mn649   2.201       .  S
N634        C640   1.352       .  A
N635        N636   1.331       .  A
N635       Mn660   2.239       .  S
N636        C640   1.364       .  A
N637        N638   1.329       .  A
N637       Mn649   2.249       .  S
N638        C639   1.367       .  A
N641        N647   1.326   1_455  A
N641        N642   1.319       .  A
N641       Mn671   2.245       .  S
N642        C650   1.357   1_455  A
N643        N644   1.326       .  A
N643        N645   1.323       .  A
N643      Mn2089   2.157   1_455  S
N644        C651   1.341       .  A
N645        N646   1.319       .  A
N645       Mn671   2.219       .  S
N646        C651   1.352       .  A
N647       N2088   1.314       .  A
N647      Mn2089   2.174       .  S
N648       N2087   1.314       .  A
N648       C2090   1.340       .  A
Mn649      N2083   2.157       .  S
Mn649      N2087   2.174       .  S
Mn649     Cl2113   2.517       .  S
C650       N2088   1.340       .  A
C650       C2867   1.444   1_545  S
N652        N653   1.328       .  A
N652        N658   1.318       .  A
N652       Mn660   2.238       .  S
N653        C661   1.362       .  A
N654        N655   1.310   1_655  A
N654       N2096   1.306       .  A
N654       Mn672   2.084   1_655  S
N655       C2102   1.336   1_455  A
N656        N657   1.318       .  A
N656       N2094   1.306       .  A
N656       Mn660   2.209       .  S
N657        C662   1.354       .  A
N658        N659   1.320       .  A
N658      Mn2112   2.180       .  S
N659        C661   1.336       .  A
Mn660     Cl2113   2.548       .  S
C662       N2095   1.336       .  A
C662       C2135   1.433       .  S
N663        N664   1.333       .  A
N663        N669   1.321       .  A
N663       Mn671   2.265       .  S
N664        C674   1.366       .  A
N665        N666   1.298       .  A
N665        N667   1.302       .  A
N665       Mn672   2.071       .  S
N666        C675   1.318       .  A
N667        N668   1.335       .  A
N667       Mn671   2.258       .  S
N668        C675   1.373       .  A
N669        N670   1.325       .  A
N669       Mn672   2.251       .  S
N670        C674   1.355       .  A
Mn671      Cl673   2.572   1_455  S
Mn672      N2098   2.180   1_455  S
Mn672      Cl673   2.489   1_455  S
Cl673     Mn2089   2.517       .  S
Cl673     Mn2100   2.548       .  S
N676        N677   1.318       .  A
N676        N682   1.318       .  A
N676       Mn705   2.213       .  S
N677        C684   1.353       .  A
N678        N680   1.309       .  A
N678        N679   1.328       .  A
N678       Mn694   2.232       .  S
N679        C685   1.359       .  A
N680        N681   1.326       .  A
N680       Mn705   2.197       .  S
N681        C685   1.355       .  A
N682        N683   1.324       .  A
N682       Mn694   2.207       .  S
N683        C684   1.354       .  A
N686        N687   1.318       .  A
N686       N2132   1.324   1_455  A
N686       Mn716   2.228       .  S
N687        C695   1.355   1_455  A
N688        N689   1.320       .  A
N688        N690   1.322       .  A
N688      Mn2134   2.182   1_455  S
N689        C696   1.343       .  A
N690        N691   1.323       .  A
N690       Mn716   2.218       .  S
N691        C696   1.351       .  A
N692        N693   1.310       .  A
N692       N2126   1.324       .  A
N692       Mn694   2.159       .  S
N693       C2135   1.337       .  A
Mn694      N2128   2.182       .  S
Mn694     Cl2158   2.504       .  S
C695       N2133   1.337       .  A
C695       C2102   1.433       .  S
N697        N698   1.334       .  A
N697        N703   1.316       .  A
N697       Mn705   2.224       .  S
N698        C706   1.359       .  A
N699        N700   1.310       .  A
N699       N2141   1.309       .  A
N699       Mn717   2.097   1_655  S
N700       C2147   1.336       .  A
N701        N702   1.323       .  A
N701       N2139   1.309       .  A
N701       Mn705   2.228       .  S
N702        C707   1.359       .  A
N703        N704   1.314       .  A
N703      Mn2157   2.187       .  S
N704        C706   1.342       .  A
Mn705     Cl2158   2.562       .  S
C707       N2140   1.336       .  A
C707       C2810   1.444       .  S
N708        N709   1.324       .  A
N708        N714   1.319       .  A
N708       Mn716   2.214       .  S
N709        C719   1.357       .  A
N710        N711   1.302       .  A
N710        N712   1.308       .  A
N710       Mn717   2.110       .  S
N711        C720   1.326       .  A
N712        N713   1.334       .  A
N712       Mn716   2.243       .  S
N713        C720   1.366       .  A
N714        N715   1.327       .  A
N714       Mn717   2.262       .  S
N715        C719   1.358       .  A
Mn716      Cl718   2.572   1_455  S
Mn717      N2143   2.187   1_455  S
Mn717      Cl718   2.490   1_455  S
Cl718     Mn2134   2.504       .  S
Cl718     Mn2145   2.562       .  S
N721        N722   1.340       .  A
N721        N727   1.306       .  A
N721       Mn750   2.289       .  S
N722        C729   1.374       .  A
N723        N725   1.317       .  A
N723        N724   1.328       .  A
N723       Mn739   2.269       .  S
N724        C730   1.357       .  A
N725        N726   1.330       .  A
N725       Mn750   2.225       .  S
N726        C730   1.363       .  A
N727        N728   1.303       .  A
N727       Mn739   2.114       .  S
N728        C729   1.321       .  A
C729       C1359   1.473       .  S
C730       C2259   1.503       .  S
N731        N737   1.308       .  A
N731        N732   1.323       .  A
N731       Mn761   2.227       .  S
N732        C740   1.362       .  A
N733        N734   1.321       .  A
N733        N735   1.313       .  A
N733       Mn739   2.193       .  S
N734        C741   1.344       .  A
N735        N736   1.323       .  A
N735       Mn761   2.183       .  S
N736        C741   1.352       .  A
N737        N738   1.307       .  A
N737       Mn739   2.093       .  S
N738        C740   1.334       .  A
Mn739      Cl763   2.449       .  S
C740        C774   1.431       .  S
C741       C1326   1.466       .  S
N742        N743   1.329       .  A
N742        N748   1.325       .  A
N742       Mn750   2.262       .  S
N743        C751   1.360       .  A
N744        N746   1.326       .  A
N744        N745   1.313       .  A
N744       Mn762   2.196       .  S
N745        C752   1.342       .  A
N746        N747   1.324       .  A
N746       Mn750   2.246       .  S
N747        C752   1.358       .  A
N748        N749   1.316       .  A
N748       Mn762   2.169       .  S
N749        C751   1.337       .  A
Mn750      Cl763   2.606       .  S
C751       C1044   1.471       .  S
C752        C810   1.452       .  S
N753        N754   1.330       .  A
N753        N759   1.310       .  A
N753       Mn761   2.233       .  S
N754        C764   1.363       .  A
N755        N756   1.329       .  A
N755        N757   1.315       .  A
N755       Mn762   2.241       .  S
N756        C765   1.362       .  A
N757        N758   1.313       .  A
N757       Mn761   2.171       .  S
N758        C765   1.345       .  A
N759        N760   1.325       .  A
N759       Mn762   2.212       .  S
N760        C764   1.353       .  A
Mn761      Cl763   2.589       .  S
Mn762      Cl763   2.471       .  S
C764        C864   1.499       .  S
C765        C909   1.466       .  S
N766        N767   1.322       .  A
N766        N772   1.308       .  A
N767        C774   1.360       .  A
N768        N770   1.312       .  A
N768        N769   1.314       .  A
N768       Mn784   2.182       .  S
N769        C775   1.340       .  A
N770        N771   1.328       .  A
N770       Mn795   2.203       .  S
N771        C775   1.359       .  A
N772        N773   1.308       .  A
N773        C774   1.336       .  A
C775       C1404   1.464       .  S
N776        N782   1.308       .  A
N776        N777   1.333       .  A
N776       Mn806   2.259       .  S
N777        C785   1.368       .  A
N778        N780   1.317       .  A
N778       Mn784   2.254       .  S
N779        C786   1.355       .  A
N780        N781   1.327       .  A
N780       Mn806   2.213       .  S
N782        N783   1.301       .  A
N782       Mn784   2.120       .  S
N783        C785   1.322       .  A
Mn784      Cl808   2.439       .  S
C785       C1281   1.457       .  S
C786        C855   1.494       .  S
N787        N788   1.331       .  A
N787        N793   1.309       .  A
N787       Mn795   2.247       .  S
N788        C796   1.367       .  A
N789        N791   1.311       .  A
N789        N790   1.326       .  A
N789       Mn807   2.237       .  S
N790        C797   1.366       .  A
N791        N792   1.318       .  A
N791       Mn795   2.170       .  S
N792        C797   1.349       .  A
N793        N794   1.319       .  A
N793       Mn807   2.169       .  S
N794        C796   1.344       .  A
Mn795      Cl808   2.570       .  S
C796       C2340   1.483       .  S
N798        N799   1.326       .  A
N798        N804   1.320       .  A
N798       Mn806   2.245       .  S
N799        C809   1.359       .  A
N800        N801   1.316       .  A
N800        N802   1.321       .  A
N800       Mn807   2.199       .  S
N801        C810   1.346       .  A
N802        N803   1.322       .  A
N802       Mn806   2.226       .  S
N803        C810   1.357       .  A
N804        N805   1.315       .  A
N804       Mn807   2.138       .  S
N805        C809   1.334       .  A
Mn806      Cl808   2.595       .  S
Mn807      Cl808   2.463       .  S
C809        C954   1.463       .  S
N811        N812   1.327       .  A
N811        N817   1.318       .  A
N811       Mn840   2.263       .  S
N812        C819   1.355       .  A
N813        N815   1.307       .  A
N813        N814   1.334       .  A
N813       Mn829   2.267       .  S
N814        C820   1.370       .  A
N815        N816   1.301       .  A
N815       Mn840   2.111       .  S
N816        C820   1.321       .  A
N817        N818   1.331       .  A
N817       Mn829   2.229       .  S
N818        C819   1.363       .  A
C819       C2170   1.503   1_455  S
C820       C1371   1.459       .  S
N821        N827   1.324       .  A
N821        N822   1.315       .  A
N822        C830   1.347       .  A
N823        N824   1.330       .  A
N823        N825   1.323       .  A
N823       Mn829   2.257       .  S
N824        C831   1.360       .  A
N825        N826   1.318       .  A
N825       Mn851   2.167       .  S
N826        C831   1.338       .  A
N827        N828   1.320       .  A
N828        C830   1.353       .  A
Mn829      Cl853   2.603       .  S
C830        C875   1.444       .  S
N832        N833   1.316       .  A
N832        N838   1.313       .  A
N832       Mn840   2.189       .  S
N833        C841   1.340       .  A
N834        N836   1.306       .  A
N834        N835   1.322       .  A
N834       Mn852   2.219       .  S
N835        C842   1.359       .  A
N836        N837   1.306       .  A
N836       Mn840   2.078       .  S
N837        C842   1.335       .  A
N838        N839   1.332       .  A
N838       Mn852   2.222       .  S
N839        C841   1.362       .  A
Mn840      Cl853   2.446       .  S
C841       C1269   1.478       .  S
C842        C887   1.425       .  S
N843        N844   1.330       .  A
N843        N849   1.314       .  A
N843       Mn851   2.253       .  S
N844        C854   1.368       .  A
N845        N846   1.329       .  A
N845        N847   1.310       .  A
N845       Mn852   2.223       .  S
N846        C855   1.361       .  A
N847       Mn851   2.211       .  S
N849        N850   1.319       .  A
N849       Mn852   2.195       .  S
N850        C854   1.352       .  A
Mn851      Cl853   2.484       .  S
Mn852      Cl853   2.567       .  S
C854        C921   1.470       .  S
N856        N857   1.327       .  A
N856        N862   1.319       .  A
N856       Mn885   2.264       .  S
N857        C864   1.356       .  A
N858        N860   1.305       .  A
N858        N859   1.336       .  A
N858       Mn874   2.273       .  S
N859        C865   1.371       .  A
N860        N861   1.302       .  A
N860       Mn885   2.111       .  S
N861        C865   1.323       .  A
N862        N863   1.328       .  A
N862       Mn874   2.228       .  S
N863        C864   1.362       .  A
C865       C1314   1.465       .  S
N866        N872   1.324       .  A
N866        N867   1.313       .  A
N866       Mn896   2.203       .  S
N867        C875   1.345       .  A
N868        N869   1.323       .  A
N868        N870   1.322       .  A
N868       Mn874   2.249       .  S
N869        C876   1.359       .  A
N870        N871   1.322       .  A
N870       Mn896   2.129       .  S
N871        C876   1.337       .  A
N872        N873   1.321       .  A
N872       Mn874   2.219       .  S
N873        C875   1.355       .  A
Mn874      Cl898   2.590       .  S
C876        C966   1.459       .  S
N877        N878   1.320       .  A
N877        N883   1.314       .  A
N877       Mn885   2.197       .  S
N878        C886   1.344       .  A
N879        N881   1.306       .  A
N879        N880   1.320       .  A
N879       Mn897   2.206       .  S
N880        C887   1.357       .  A
N881        N882   1.309       .  A
N881       Mn885   2.098       .  S
N882        C887   1.337       .  A
N883        N884   1.322       .  A
N883       Mn897   2.180       .  S
N884        C886   1.352       .  A
Mn885      Cl898   2.440       .  S
C886       C1416   1.464       .  S
N888        N889   1.330       .  A
N888        N894   1.313       .  A
N888       Mn896   2.268       .  S
N889        C899   1.372       .  A
N890        N891   1.331       .  A
N890        N892   1.307       .  A
N890       Mn897   2.238       .  S
N891        C900   1.366       .  A
N892        N893   1.319       .  A
N892       Mn896   2.164       .  S
N893        C900   1.344       .  A
N894        N895   1.316       .  A
N894       Mn897   2.162       .  S
N895        C899   1.346       .  A
Mn896      Cl898   2.472       .  S
Mn897      Cl898   2.576       .  S
C899       C1056   1.460       .  S
C900       C2236   1.483   1_455  S
N901        N902   1.330       .  A
N901        N907   1.313       .  A
N901       Mn930   2.208       .  S
N902        C909   1.357       .  A
N903        N905   1.311       .  A
N903        N904   1.309       .  A
N903       Mn919   2.102       .  S
N905        N906   1.322   1_554  A
N905       Mn930   2.226       .  S
N907        N908   1.314       .  A
N907       Mn919   2.181       .  S
N908        C909   1.343       .  A
C910        C989   1.440   1_545  S
N911        N917   1.319       .  A
N911        N912   1.320   1_554  A
N911       Mn941   2.188   1_554  S
N912        C920   1.353   1_556  A
N913        N914   1.304       .  A
N913        N915   1.309       .  A
N913       Mn919   2.121       .  S
N914        C921   1.324       .  A
N915        N916   1.338       .  A
N915       Mn941   2.274   1_554  S
N916        C921   1.370       .  A
N917        N918   1.328       .  A
N917       Mn919   2.270       .  S
N918        C920   1.358       .  A
Mn919      Cl943   2.462   1_554  S
C920       C1022   1.482   1_554  S
N922        N923   1.318       .  A
N922        N928   1.316       .  A
N922       Mn930   2.204   1_556  S
N923        C931   1.351       .  A
N924        N926   1.308       .  A
N924        N925   1.322       .  A
N924       Mn942   2.186       .  S
N925        C932   1.349       .  A
N926        N927   1.324   1_556  A
N926       Mn930   2.204   1_556  S
N927        C932   1.358   1_554  A
N928        N929   1.326       .  A
N928       Mn942   2.216       .  S
N929        C931   1.356       .  A
Mn930      Cl943   2.564   1_554  S
C931       C1101   1.469       .  S
C932       C1067   1.470       .  S
N933        N934   1.319   1_556  A
N933        N939   1.321       .  A
N933       Mn941   2.221       .  S
N934        C944   1.357   1_554  A
N935        N936   1.317       .  A
N935        N937   1.322       .  A
N935       Mn942   2.150       .  S
N936        C945   1.337       .  A
N937        N938   1.328       .  A
N937       Mn941   2.255       .  S
N938        C945   1.358       .  A
N939        N940   1.310       .  A
N939       Mn942   2.160       .  S
N940        C944   1.336       .  A
Mn941      Cl943   2.586       .  S
Mn942      Cl943   2.488       .  S
C944        C955   1.437   1_556  S
C945       C1191   1.471       .  S
N946        N947   1.325       .  A
N946        N952   1.314       .  A
N946       Mn975   2.207       .  S
N947        C954   1.358       .  A
N948        N950   1.309       .  A
N948        N949   1.310       .  A
N948       Mn964   2.082       .  S
N949        C955   1.336       .  A
N950        N951   1.319   1_554  A
N950       Mn975   2.231       .  S
N951        C955   1.358   1_556  A
N952        N953   1.317       .  A
N952       Mn964   2.178       .  S
N953        C954   1.336       .  A
N956        N962   1.320       .  A
N956        N957   1.331   1_554  A
N956       Mn986   2.245       .  S
N957        C965   1.364   1_556  A
N958        N959   1.299       .  A
N958        N960   1.302       .  A
N958       Mn964   2.093       .  S
N959        C966   1.315       .  A
N960        N961   1.336       .  A
N960       Mn986   2.270       .  S
N961        C966   1.375       .  A
N962        N963   1.329       .  A
N962       Mn964   2.275       .  S
N963        C965   1.359       .  A
Mn964      Cl988   2.469       .  S
C965       C1055   1.509       .  S
N967        N968   1.318       .  A
N967        N973   1.315       .  A
N967       Mn975   2.189   1_556  S
N968        C976   1.351       .  A
N969        N971   1.309       .  A
N969        N970   1.327       .  A
N969       Mn987   2.195       .  S
N970        C977   1.350       .  A
N971        N972   1.333   1_556  A
N971       Mn975   2.259   1_556  S
N972        C977   1.368   1_554  A
N973        N974   1.327       .  A
N973       Mn987   2.245       .  S
N974        C976   1.367       .  A
Mn975      Cl988   2.553       .  S
C976       C1134   1.459       .  S
C977       C1010   1.509   1_556  S
N978        N979   1.317   1_556  A
N978        N984   1.325       .  A
N978       Mn986   2.234   1_556  S
N979        C989   1.356       .  A
N980        N981   1.324       .  A
N980        N982   1.324       .  A
N980       Mn987   2.151       .  S
N981        C990   1.339       .  A
N982        N983   1.323       .  A
N982       Mn986   2.243   1_556  S
N983        C990   1.356       .  A
N984        N985   1.314       .  A
N984       Mn987   2.172       .  S
N985        C989   1.340   1_556  A
Mn986      Cl988   2.586       .  S
Mn987      Cl988   2.506   1_556  S
C990       C1224   1.465       .  S
N991        N992   1.325       .  A
N991        N997   1.314       .  A
N991      Mn1020   2.213       .  S
N992        C999   1.357       .  A
N993        N995   1.305       .  A
N993       N2434   1.309   1_455  A
N993      Mn2449   2.090   1_455  S
N994       N2433   1.309       .  A
N994       C2440   1.335   1_554  A
N995        N996   1.323   1_554  A
N995      Mn1020   2.218       .  S
N996       C1000   1.361       .  A
N997        N998   1.323       .  A
N997      Mn2449   2.183   1_455  S
N998        C999   1.342       .  A
C1000      N2434   1.335   1_456  A
C1000      C2485   1.433       .  S
N1001      N1007   1.318       .  A
N1001      N1002   1.335   1_554  A
N1002      C1010   1.371   1_556  A
N1003      N1004   1.299       .  A
N1003      N1005   1.306       .  A
N1004      C1011   1.321       .  A
N1005      N1006   1.335       .  A
N1005     Mn1031   2.258       .  S
N1006      C1011   1.369       .  A
N1007      N1008   1.324       .  A
N1007     Mn1009   2.231       .  S
N1008      C1010   1.349       .  A
Mn1009     N2433   2.090       .  S
Mn1009     N2437   2.183       .  S
N1012      N1013   1.314       .  A
N1012     Mn1020   2.185   1_556  S
N1013      C1021   1.344       .  A
N1014      N1016   1.309       .  A
N1014      N1015   1.319       .  A
N1014     Mn1032   2.196       .  S
N1015      C1022   1.350       .  A
N1016      N1017   1.329   1_556  A
N1017      C1022   1.359   1_554  A
N1018     Mn1032   2.273       .  S
N1019      C1021   1.368       .  A
Mn1020    Cl1753   2.569       .  S
C1021      C1236   1.481       .  S
N1023      N1024   1.323       .  A
N1023      N1029   1.326   1_554  A
N1023     Mn1031   2.247       .  S
N1024      C1034   1.358       .  A
N1025      N1026   1.324       .  A
N1025      N1027   1.323       .  A
N1025     Mn2472   2.159       .  S
N1026      C1035   1.341       .  A
N1027      N1028   1.320       .  A
N1027     Mn1031   2.231   1_556  S
N1028      C1035   1.355       .  A
N1029      N2470   1.316       .  A
N1029     Mn2472   2.211       .  S
N1030      N2469   1.316       .  A
N1030      C2474   1.347   1_556  A
Mn1031    Cl1033   2.589       .  S
Mn1032     N2465   2.159   1_455  S
Mn1032     N2469   2.211       .  S
Mn1032    Cl2473   2.497   1_556  S
Cl1033    Mn1740   2.569       .  S
Cl1033    Mn2472   2.497   1_554  S
C1034      N2470   1.347   1_554  A
C1034      C2519   1.455       .  S
C1035      C1089   1.457       .  S
N1036      N1037   1.323       .  A
N1036      N1042   1.314       .  A
N1036     Mn1065   2.198       .  S
N1037      C1044   1.355       .  A
N1038      N1040   1.307       .  A
N1038      N2479   1.306       .  A
N1038     Mn2494   2.086       .  S
N1039      N2478   1.306       .  A
N1039      C2485   1.334   1_554  A
N1040      N1041   1.324   1_554  A
N1040     Mn1065   2.227       .  S
N1041      C1045   1.364       .  A
N1042      N1043   1.323       .  A
N1042     Mn2494   2.192       .  S
N1043      C1044   1.343       .  A
C1045      N2479   1.333   1_556  A
C1045      C2440   1.433       .  S
N1046      N1052   1.319       .  A
N1046      N1047   1.333   1_554  A
N1046     Mn1076   2.254       .  S
N1047      C1055   1.366   1_556  A
N1048      N1049   1.300       .  A
N1048      N1050   1.308       .  A
N1048     Mn1054   2.091       .  S
N1049      C1056   1.320       .  A
N1050      N1051   1.338       .  A
N1050     Mn1076   2.267       .  S
N1051      C1056   1.369       .  A
N1052      N1053   1.327       .  A
N1052     Mn1054   2.255       .  S
N1053      C1055   1.354       .  A
Mn1054     N2478   2.087       .  S
Mn1054     N2482   2.192   1_455  S
Mn1054    Cl1078   2.436       .  S
N1057      N1058   1.313       .  A
N1057      N1063   1.317       .  A
N1057     Mn1065   2.166   1_556  S
N1058      C1066   1.342       .  A
N1059      N1061   1.308       .  A
N1059      N1060   1.314       .  A
N1059     Mn1077   2.149       .  S
N1060      C1067   1.339       .  A
N1061      N1062   1.331   1_556  A
N1061     Mn1065   2.231   1_556  S
N1062      C1067   1.366   1_554  A
N1063      N1064   1.333       .  A
N1063     Mn1077   2.278       .  S
N1064      C1066   1.368       .  A
Mn1065    Cl2518   2.593       .  S
C1066      C1146   1.477       .  S
N1068      N1069   1.324       .  A
N1068      N1074   1.324   1_454  A
N1068     Mn1076   2.239       .  S
N1069      C1079   1.358       .  A
N1070      N1071   1.322       .  A
N1070      N1072   1.324       .  A
N1070     Mn2517   2.133   1_455  S
N1071      C1080   1.337       .  A
N1072      N1073   1.322       .  A
N1072     Mn1076   2.246   1_556  S
N1073      C1080   1.358       .  A
N1074      N2515   1.315       .  A
N1074     Mn2517   2.205       .  S
N1075      N2514   1.315       .  A
N1075      C2519   1.345   1_556  A
Mn1076    Cl1078   2.604       .  S
Mn1077     N2510   2.133       .  S
Mn1077     N2514   2.205       .  S
Mn1077    Cl2518   2.469   1_556  S
Cl1078    Mn2505   2.593   1_455  S
Cl1078    Mn2517   2.469   1_454  S
C1079      N2515   1.345   1_454  A
C1079      C2474   1.455       .  S
C1080      C1179   1.454       .  S
N1081      N1082   1.334       .  A
N1081      N1087   1.308       .  A
N1081     Mn1110   2.278       .  S
N1082      C1089   1.372       .  A
N1083      N1085   1.318       .  A
N1083     Mn1099   2.238       .  S
N1084      C1090   1.351       .  A
N1085      N1086   1.328       .  A
N1085     Mn1110   2.226       .  S
N1087      N1088   1.300       .  A
N1087     Mn1099   2.094       .  S
N1088      C1089   1.320       .  A
C1090      C2699   1.490       .  S
N1091      N1097   1.306       .  A
N1091      N1092   1.324       .  A
N1092      C1100   1.363       .  A
N1093      N1094   1.316       .  A
N1093      N1095   1.312       .  A
N1093     Mn1099   2.191       .  S
N1094      C1101   1.342       .  A
N1095      N1096   1.328       .  A
N1095     Mn1121   2.198       .  S
N1096      C1101   1.358       .  A
N1097      N1098   1.308       .  A
N1098      C1100   1.334       .  A
Mn1099    Cl1123   2.450       .  S
C1100      C1145   1.434       .  S
N1102      N1103   1.331       .  A
N1102      N1108   1.322       .  A
N1102     Mn1110   2.277       .  S
N1103      C1111   1.364       .  A
N1104      N1106   1.321       .  A
N1104      N1105   1.316       .  A
N1104     Mn1122   2.208       .  S
N1105      C1112   1.347       .  A
N1106      N1107   1.320       .  A
N1106     Mn1110   2.209       .  S
N1107      C1112   1.354       .  A
N1108      N1109   1.316       .  A
N1108     Mn1122   2.137       .  S
N1109      C1111   1.332       .  A
Mn1110    Cl1123   2.592       .  S
C1111      C1381   1.476       .  S
C1112      C1157   1.447       .  S
N1113      N1114   1.330       .  A
N1113      N1119   1.308       .  A
N1113     Mn1121   2.240       .  S
N1114      C1124   1.366       .  A
N1115      N1116   1.324       .  A
N1115      N1117   1.310       .  A
N1115     Mn1122   2.238       .  S
N1116      C1125   1.367       .  A
N1117      N1118   1.317       .  A
N1117     Mn1121   2.165       .  S
N1118      C1125   1.349       .  A
N1119      N1120   1.317       .  A
N1119     Mn1122   2.157       .  S
N1120      C1124   1.342       .  A
Mn1121    Cl1123   2.582       .  S
Mn1122    Cl1123   2.453       .  S
C1124      C1214   1.474       .  S
N1126      N1127   1.336       .  A
N1126      N1132   1.306       .  A
N1126     Mn1155   2.261       .  S
N1127      C1134   1.369       .  A
N1128      N1130   1.318       .  A
N1128      N1129   1.330       .  A
N1128     Mn1144   2.276       .  S
N1129      C1135   1.359       .  A
N1130      N1131   1.333       .  A
N1130     Mn1155   2.250       .  S
N1131      C1135   1.366       .  A
N1132      N1133   1.301       .  A
N1132     Mn1144   2.103       .  S
N1133      C1134   1.323       .  A
C1135      C1225   1.516       .  S
N1136      N1142   1.307       .  A
N1136      N1137   1.325       .  A
N1136     Mn1166   2.238       .  S
N1137      C1145   1.363       .  A
N1138      N1139   1.318       .  A
N1138      N1140   1.313       .  A
N1138     Mn1144   2.207       .  S
N1139      C1146   1.346       .  A
N1140      N1141   1.331       .  A
N1140     Mn1166   2.193       .  S
N1141      C1146   1.355       .  A
N1142      N1143   1.307       .  A
N1142     Mn1144   2.081       .  S
N1143      C1145   1.333       .  A
Mn1144    Cl1168   2.467       .  S
N1147      N1148   1.319       .  A
N1147      N1153   1.325       .  A
N1147     Mn1155   2.239       .  S
N1148      C1156   1.355       .  A
N1149      N1151   1.327       .  A
N1149      N1150   1.313       .  A
N1149     Mn1167   2.203       .  S
N1150      C1157   1.344       .  A
N1151      N1152   1.322       .  A
N1151     Mn1155   2.239       .  S
N1152      C1157   1.356       .  A
N1153      N1154   1.324       .  A
N1153     Mn1167   2.167       .  S
N1154      C1156   1.342       .  A
Mn1155    Cl1168   2.586       .  S
C1156      C1350   1.460       .  S
N1158      N1159   1.328       .  A
N1158      N1164   1.309       .  A
N1158     Mn1166   2.216       .  S
N1159      C1169   1.361       .  A
N1160      N1161   1.335       .  A
N1160      N1162   1.317       .  A
N1160     Mn1167   2.273       .  S
N1161      C1170   1.368       .  A
N1162      N1163   1.311       .  A
N1162     Mn1166   2.167       .  S
N1163      C1170   1.341       .  A
N1164      N1165   1.325       .  A
N1164     Mn1167   2.211       .  S
N1165      C1169   1.353       .  A
Mn1166    Cl1168   2.581       .  S
Mn1167    Cl1168   2.490       .  S
C1169      C2620   1.495       .  S
C1170      C1426   1.477       .  S
N1171      N1172   1.334       .  A
N1171      N1177   1.303       .  A
N1171     Mn1200   2.270       .  S
N1172      C1179   1.374       .  A
N1173      N1175   1.317       .  A
N1173      N1174   1.326       .  A
N1173     Mn1189   2.248       .  S
N1174      C1180   1.354       .  A
N1175      N1176   1.328       .  A
N1175     Mn1200   2.228       .  S
N1176      C1180   1.362       .  A
N1177      N1178   1.299       .  A
N1177     Mn1189   2.085       .  S
N1178      C1179   1.316       .  A
C1180      C2609   1.495   1_455  S
N1181      N1187   1.307       .  A
N1181      N1182   1.325       .  A
N1181     Mn1211   2.241       .  S
N1182      C1190   1.364       .  A
N1183      N1184   1.320       .  A
N1183      N1185   1.313       .  A
N1183     Mn1189   2.186       .  S
N1184      C1191   1.339       .  A
N1185      N1186   1.325       .  A
N1185     Mn1211   2.198       .  S
N1186      C1191   1.355       .  A
N1187      N1188   1.306       .  A
N1187     Mn1189   2.081       .  S
N1188      C1190   1.333       .  A
Mn1189    Cl1213   2.449       .  S
C1190      C1235   1.434       .  S
N1192      N1193   1.320       .  A
N1192      N1198   1.322       .  A
N1192     Mn1200   2.237       .  S
N1193      C1201   1.357       .  A
N1194      N1196   1.323       .  A
N1194      N1195   1.313       .  A
N1194     Mn1212   2.202       .  S
N1195      C1202   1.345       .  A
N1196      N1197   1.321       .  A
N1196     Mn1200   2.212       .  S
N1197      C1202   1.354       .  A
N1198      N1199   1.322       .  A
N1198     Mn1212   2.145       .  S
N1199      C1201   1.341       .  A
Mn1200    Cl1213   2.591       .  S
C1201      C1395   1.452       .  S
C1202      C1247   1.444       .  S
N1203      N1204   1.329       .  A
N1203      N1209   1.308       .  A
N1203     Mn1211   2.228       .  S
N1204      C1214   1.364       .  A
N1205      N1206   1.337       .  A
N1205      N1207   1.317       .  A
N1205     Mn1212   2.281       .  S
N1206      C1215   1.370       .  A
N1207      N1208   1.311       .  A
N1207     Mn1211   2.167       .  S
N1208      C1215   1.341       .  A
N1209      N1210   1.318       .  A
N1209     Mn1212   2.165       .  S
N1210      C1214   1.343       .  A
Mn1211    Cl1213   2.571       .  S
Mn1212    Cl1213   2.481       .  S
C1215      C1336   1.481       .  S
N1216      N1217   1.335       .  A
N1216      N1222   1.306       .  A
N1216     Mn1245   2.280       .  S
N1217      C1224   1.372       .  A
N1218      N1220   1.319       .  A
N1218      N1219   1.330       .  A
N1218     Mn1234   2.286       .  S
N1219      C1225   1.359       .  A
N1220      N1221   1.333       .  A
N1220     Mn1245   2.238       .  S
N1221      C1225   1.365       .  A
N1222      N1223   1.303       .  A
N1222     Mn1234   2.114       .  S
N1223      C1224   1.320       .  A
N1226      N1232   1.307       .  A
N1226      N1227   1.323       .  A
N1226     Mn1256   2.231       .  S
N1227      C1235   1.361       .  A
N1228      N1229   1.317       .  A
N1228      N1230   1.313       .  A
N1228     Mn1234   2.205       .  S
N1229      C1236   1.343       .  A
N1230      N1231   1.334       .  A
N1230     Mn1256   2.206       .  S
N1231      C1236   1.358       .  A
N1232      N1233   1.309       .  A
N1232     Mn1234   2.086       .  S
N1233      C1235   1.336       .  A
Mn1234    Cl1258   2.444       .  S
N1237      N1238   1.332       .  A
N1237      N1243   1.324       .  A
N1237     Mn1245   2.275       .  S
N1238      C1246   1.363       .  A
N1239      N1241   1.324       .  A
N1239      N1240   1.316       .  A
N1240      C1247   1.347       .  A
N1241      N1242   1.319       .  A
N1242      C1247   1.353       .  A
N1243      N1244   1.316       .  A
N1243     Mn1257   2.151       .  S
N1244      C1246   1.333       .  A
Mn1245    Cl1258   2.604       .  S
N1248      N1249   1.328       .  A
N1248      N1254   1.309       .  A
N1248     Mn1256   2.225       .  S
N1249      C1259   1.361       .  A
N1250      N1251   1.326       .  A
N1250      N1252   1.312       .  A
N1250     Mn1257   2.245       .  S
N1251      C1260   1.367       .  A
N1252      N1253   1.317       .  A
N1252     Mn1256   2.176       .  S
N1253      C1260   1.351       .  A
N1254     Mn1257   2.198       .  S
Mn1256    Cl1258   2.568       .  S
Mn1257    Cl1258   2.474       .  S
C1259      C2530   1.490   1_455  S
C1260      C1440   1.458       .  S
N1261      N1262   1.320       .  A
N1261     Mn1290   2.231       .  S
N1262      C1269   1.354       .  A
N1263      N1265   1.308       .  A
N1263      N1264   1.324       .  A
N1263     Mn1279   2.205       .  S
N1264      C1270   1.353       .  A
N1265      N1266   1.328       .  A
N1266      C1270   1.359       .  A
N1267     Mn1279   2.229   1_545  S
N1268      C1269   1.358       .  A
C1270      C1439   1.491       .  S
N1271      N1277   1.325       .  A
N1271      N1272   1.322       .  A
N1271     Mn1301   2.252       .  S
N1272      C1280   1.359       .  A
N1273      N1274   1.326       .  A
N1273      N1275   1.323       .  A
N1273     Mn1279   2.158       .  S
N1274      C1281   1.341       .  A
N1275      N1276   1.317       .  A
N1275     Mn1301   2.213       .  S
N1276      C1281   1.350       .  A
N1277      N1278   1.311       .  A
N1277     Mn1279   2.164       .  S
N1278      C1280   1.338       .  A
Mn1279    Cl1303   2.518   1_565  S
C1280      C1337   1.444       .  S
N1282      N1283   1.327       .  A
N1282      N1288   1.318       .  A
N1282     Mn1290   2.245       .  S
N1283      C1291   1.361       .  A
N1284      N1286   1.308       .  A
N1284      N1285   1.309       .  A
N1284     Mn1302   2.098       .  S
N1285      C1292   1.336       .  A
N1286      N1287   1.322       .  A
N1286     Mn1290   2.213       .  S
N1287      C1292   1.357       .  A
N1288      N1289   1.321       .  A
N1288     Mn1302   2.171       .  S
N1289      C1291   1.339       .  A
C1292      C1325   1.440       .  S
N1293      N1294   1.331       .  A
N1293      N1299   1.321       .  A
N1294      C1304   1.367       .  A
N1295      N1296   1.300   1_565  A
N1295      N1297   1.306       .  A
N1296      C1305   1.324   1_545  A
N1297      N1298   1.334       .  A
N1297     Mn1301   2.239       .  S
N1298      C1305   1.366       .  A
N1299      N1300   1.326       .  A
N1299     Mn1302   2.242       .  S
N1300      C1304   1.353       .  A
Mn1301    Cl1303   2.572   1_565  S
C1304      C1360   1.504       .  S
N1306      N1307   1.321       .  A
N1306      N1312   1.315       .  A
N1306     Mn1335   2.206       .  S
N1307      C1314   1.355       .  A
N1308      N1310   1.309       .  A
N1308      N1309   1.331       .  A
N1308     Mn1324   2.230       .  S
N1309      C1315   1.358       .  A
N1310      N1311   1.328       .  A
N1310     Mn1335   2.222       .  S
N1311      C1315   1.359       .  A
N1312      N1313   1.327       .  A
N1312     Mn1324   2.238       .  S
N1313      C1314   1.364       .  A
C1315      C1394   1.507       .  S
N1316      N1322   1.324       .  A
N1316      N1317   1.316       .  A
N1316     Mn1346   2.225       .  S
N1317      C1325   1.354       .  A
N1318      N1319   1.319       .  A
N1318      N1320   1.321       .  A
N1318     Mn1324   2.175       .  S
N1319      C1326   1.342       .  A
N1320      N1321   1.325       .  A
N1320     Mn1346   2.221       .  S
N1321      C1326   1.352       .  A
N1322      N1323   1.315       .  A
N1322     Mn1324   2.177       .  S
N1323      C1325   1.342       .  A
Mn1324    Cl1348   2.508       .  S
N1327      N1328   1.336       .  A
N1327      N1333   1.316       .  A
N1327     Mn1335   2.223       .  S
N1328      C1336   1.361       .  A
N1329      N1331   1.308       .  A
N1329      N1330   1.314       .  A
N1329     Mn1347   2.098       .  S
N1330      C1337   1.339       .  A
N1331      N1332   1.319       .  A
N1331     Mn1335   2.226       .  S
N1332      C1337   1.357       .  A
N1333      N1334   1.313       .  A
N1333     Mn1347   2.198       .  S
N1334      C1336   1.342       .  A
Mn1335    Cl1348   2.550       .  S
N1338      N1339   1.325       .  A
N1338      N1344   1.319       .  A
N1338     Mn1346   2.205       .  S
N1339      C1349   1.356       .  A
N1340      N1341   1.302       .  A
N1340      N1342   1.306       .  A
N1340     Mn1347   2.102       .  S
N1341      C1350   1.321       .  A
N1342      N1343   1.335       .  A
N1342     Mn1346   2.258       .  S
N1343      C1350   1.370       .  A
N1344      N1345   1.328       .  A
N1344     Mn1347   2.281       .  S
N1345      C1349   1.361       .  A
Mn1346    Cl1348   2.579       .  S
Mn1347    Cl1348   2.476       .  S
C1349      C1405   1.495       .  S
N1351      N1352   1.322       .  A
N1351      N1357   1.317       .  A
N1351     Mn1380   2.219       .  S
N1352      C1359   1.355       .  A
N1353      N1355   1.308       .  A
N1353      N1354   1.327       .  A
N1353     Mn1369   2.201       .  S
N1354      C1360   1.352       .  A
N1355      N1356   1.331       .  A
N1355     Mn1380   2.239       .  S
N1356      C1360   1.364       .  A
N1357      N1358   1.329       .  A
N1357     Mn1369   2.249       .  S
N1358      C1359   1.367       .  A
N1361      N1367   1.326   1_455  A
N1361      N1362   1.319       .  A
N1361     Mn1391   2.245       .  S
N1362      C1370   1.357   1_455  A
N1363      N1364   1.326       .  A
N1363      N1365   1.323       .  A
N1363     Mn2809   2.157   1_455  S
N1364      C1371   1.341       .  A
N1365      N1366   1.319       .  A
N1365     Mn1391   2.219       .  S
N1366      C1371   1.352       .  A
N1367      N2808   1.314       .  A
N1367     Mn2809   2.174       .  S
N1368      N2807   1.314       .  A
N1368      C2810   1.340       .  A
Mn1369     N2803   2.157       .  S
Mn1369     N2807   2.174       .  S
Mn1369    Cl2833   2.517       .  S
C1370      N2808   1.340       .  A
C1370      C2147   1.444       .  S
N1372      N1373   1.328       .  A
N1372      N1378   1.318       .  A
N1372     Mn1380   2.238       .  S
N1373      C1381   1.362       .  A
N1374      N2816   1.306       .  A
N1374      N1375   1.310   1_655  A
N1374     Mn1392   2.084   1_655  S
N1375      C2822   1.336   1_455  A
N1376      N2814   1.306       .  A
N1376      N1377   1.318       .  A
N1376     Mn1380   2.209       .  S
N1377      C1382   1.354       .  A
N1378      N1379   1.320       .  A
N1378     Mn2832   2.180       .  S
N1379      C1381   1.336       .  A
Mn1380    Cl2833   2.548       .  S
C1382      N2815   1.336       .  A
C1382      C2855   1.433       .  S
N1383      N1384   1.333       .  A
N1383      N1389   1.321       .  A
N1383     Mn1391   2.265       .  S
N1384      C1394   1.366       .  A
N1385      N1386   1.298       .  A
N1385      N1387   1.302       .  A
N1385     Mn1392   2.071       .  S
N1386      C1395   1.318       .  A
N1387      N1388   1.335       .  A
N1387     Mn1391   2.258       .  S
N1388      C1395   1.373       .  A
N1389      N1390   1.325       .  A
N1389     Mn1392   2.251       .  S
N1390      C1394   1.355       .  A
Mn1391    Cl1393   2.572   1_455  S
Mn1392     N2818   2.180   1_455  S
Mn1392    Cl1393   2.489   1_455  S
Cl1393    Mn2809   2.517       .  S
Cl1393    Mn2820   2.548       .  S
N1396      N1397   1.318       .  A
N1396      N1402   1.318       .  A
N1396     Mn1425   2.213       .  S
N1397      C1404   1.353       .  A
N1398      N1400   1.309       .  A
N1398      N1399   1.328       .  A
N1398     Mn1414   2.232       .  S
N1399      C1405   1.359       .  A
N1400      N1401   1.326       .  A
N1400     Mn1425   2.197       .  S
N1401      C1405   1.355       .  A
N1402      N1403   1.324       .  A
N1402     Mn1414   2.207       .  S
N1403      C1404   1.354       .  A
N1406      N2852   1.324   1_455  A
N1406      N1407   1.318       .  A
N1406     Mn1436   2.228       .  S
N1407      C1415   1.355   1_455  A
N1408      N1409   1.320       .  A
N1408      N1410   1.322       .  A
N1408     Mn2854   2.181   1_455  S
N1409      C1416   1.343       .  A
N1410      N1411   1.323       .  A
N1410     Mn1436   2.218       .  S
N1411      C1416   1.351       .  A
N1412      N2846   1.324       .  A
N1412      N1413   1.310       .  A
N1412     Mn1414   2.159       .  S
N1413      C2855   1.337       .  A
Mn1414     N2848   2.182       .  S
Mn1414    Cl2878   2.504       .  S
C1415      N2853   1.337       .  A
C1415      C2822   1.433       .  S
N1417      N1418   1.334       .  A
N1417      N1423   1.316       .  A
N1417     Mn1425   2.224       .  S
N1418      C1426   1.359       .  A
N1419      N2861   1.309       .  A
N1419      N1420   1.310       .  A
N1419     Mn1437   2.097   1_655  S
N1420      C2867   1.336       .  A
N1421      N2859   1.309       .  A
N1421      N1422   1.323       .  A
N1421     Mn1425   2.228       .  S
N1422      C1427   1.359       .  A
N1423      N1424   1.314       .  A
N1423     Mn2877   2.187       .  S
N1424      C1426   1.342       .  A
Mn1425    Cl2878   2.562       .  S
C1427      N2860   1.336       .  A
C1427      C2090   1.444   1_565  S
N1428      N1429   1.324       .  A
N1428      N1434   1.319       .  A
N1428     Mn1436   2.214       .  S
N1429      C1439   1.357       .  A
N1430      N1431   1.302       .  A
N1430      N1432   1.308       .  A
N1430     Mn1437   2.110       .  S
N1431      C1440   1.326       .  A
N1432      N1433   1.334       .  A
N1432     Mn1436   2.243       .  S
N1433      C1440   1.366       .  A
N1434      N1435   1.327       .  A
N1434     Mn1437   2.262       .  S
N1435      C1439   1.358       .  A
Mn1436    Cl1438   2.572   1_455  S
Mn1437     N2863   2.187   1_455  S
Mn1437    Cl1438   2.490   1_455  S
Cl1438    Mn2854   2.504       .  S
Cl1438    Mn2865   2.562       .  S
N1441      N1442   1.340       .  A
N1441      N1447   1.306       .  A
N1441     Mn1470   2.289       .  S
N1442      C1449   1.374       .  A
N1443      N1445   1.317       .  A
N1443      N1444   1.328       .  A
N1443     Mn1459   2.269       .  S
N1444      C1450   1.357       .  A
N1445      N1446   1.330       .  A
N1445     Mn1470   2.225       .  S
N1446      C1450   1.363       .  A
N1447      N1448   1.303       .  A
N1447     Mn1459   2.114       .  S
N1448      C1449   1.321       .  A
C1449      C2079   1.473       .  S
N1451      N1457   1.308       .  A
N1451      N1452   1.323       .  A
N1451     Mn1481   2.227       .  S
N1452      C1460   1.362       .  A
N1453      N1454   1.321       .  A
N1453      N1455   1.313       .  A
N1453     Mn1459   2.193       .  S
N1454      C1461   1.344       .  A
N1455      N1456   1.323       .  A
N1455     Mn1481   2.183       .  S
N1456      C1461   1.352       .  A
N1457      N1458   1.307       .  A
N1457     Mn1459   2.093       .  S
N1458      C1460   1.334       .  A
Mn1459    Cl1483   2.449       .  S
C1460      C1494   1.431       .  S
C1461      C2046   1.466       .  S
N1462      N1463   1.329       .  A
N1462      N1468   1.325       .  A
N1462     Mn1470   2.262       .  S
N1463      C1471   1.360       .  A
N1464      N1466   1.326       .  A
N1464      N1465   1.313       .  A
N1464     Mn1482   2.196       .  S
N1465      C1472   1.342       .  A
N1466      N1467   1.324       .  A
N1466     Mn1470   2.246       .  S
N1467      C1472   1.358       .  A
N1468      N1469   1.316       .  A
N1468     Mn1482   2.169       .  S
N1469      C1471   1.337       .  A
Mn1470    Cl1483   2.606       .  S
C1471      C1764   1.471       .  S
C1472      C1530   1.452       .  S
N1473      N1474   1.330       .  A
N1473      N1479   1.310       .  A
N1473     Mn1481   2.233       .  S
N1474      C1484   1.363       .  A
N1475      N1476   1.329       .  A
N1475      N1477   1.315       .  A
N1475     Mn1482   2.241       .  S
N1476      C1485   1.362       .  A
N1477      N1478   1.313       .  A
N1477     Mn1481   2.171       .  S
N1478      C1485   1.345       .  A
N1479      N1480   1.325       .  A
N1479     Mn1482   2.212       .  S
N1480      C1484   1.353       .  A
Mn1481    Cl1483   2.589       .  S
Mn1482    Cl1483   2.471       .  S
C1484      C1584   1.499       .  S
C1485      C1629   1.466       .  S
N1486      N1487   1.322       .  A
N1486      N1492   1.308       .  A
N1486     Mn2235   2.231   1_545  S
N1487      C1494   1.360       .  A
N1488      N1490   1.312       .  A
N1488      N1489   1.314       .  A
N1488     Mn1504   2.182       .  S
N1489      C1495   1.340       .  A
N1490      N1491   1.328       .  A
N1490     Mn1515   2.203       .  S
N1491      C1495   1.359       .  A
N1492      N1493   1.308       .  A
N1492     Mn2224   2.087   1_545  S
N1493      C1494   1.336       .  A
C1495      C2124   1.464       .  S
N1496      N1502   1.308       .  A
N1496      N1497   1.333       .  A
N1496     Mn1526   2.259       .  S
N1497      C1505   1.368       .  A
N1498      N2219   1.326       .  A
N1498      N1500   1.317       .  A
N1498     Mn1504   2.254       .  S
N1499      N2218   1.326   1_545  A
N1499      C1506   1.355   1_545  A
N1500      N1501   1.327       .  A
N1500     Mn1526   2.213       .  S
N1501      C2226   1.361       .  A
N1502      N1503   1.301       .  A
N1502     Mn1504   2.120       .  S
N1503      C1505   1.322       .  A
Mn1504     N2212   2.087       .  S
Mn1504    Cl1528   2.439       .  S
C1505      C2001   1.457       .  S
C1506      N2221   1.361       .  A
C1506      C1575   1.494   1_565  S
N1507      N1508   1.331       .  A
N1507      N1513   1.309       .  A
N1507     Mn1515   2.247       .  S
N1508      C1516   1.367       .  A
N1509      N1511   1.311       .  A
N1509      N1510   1.326       .  A
N1509     Mn1527   2.237       .  S
N1510      C1517   1.366       .  A
N1511      N1512   1.318       .  A
N1511     Mn1515   2.170       .  S
N1512      C1517   1.349       .  A
N1513      N1514   1.319       .  A
N1513     Mn1527   2.169       .  S
N1514      C1516   1.344       .  A
Mn1515     N2206   2.231       .  S
Mn1515    Cl1528   2.570       .  S
C1517      C2451   1.454       .  S
N1518      N1519   1.326       .  A
N1518      N1524   1.320       .  A
N1518     Mn1526   2.245       .  S
N1519      C1529   1.359       .  A
N1520      N1521   1.316       .  A
N1520      N1522   1.321       .  A
N1520     Mn1527   2.199       .  S
N1521      C1530   1.346       .  A
N1522      N1523   1.322       .  A
N1522     Mn1526   2.226       .  S
N1523      C1530   1.357       .  A
N1524      N1525   1.315       .  A
N1524     Mn1527   2.138       .  S
N1525      C1529   1.334       .  A
Mn1526    Cl1528   2.595       .  S
Mn1527    Cl1528   2.463       .  S
C1529      C1674   1.463       .  S
N1531      N1532   1.327       .  A
N1531      N1537   1.318       .  A
N1531     Mn1560   2.263       .  S
N1532      C1539   1.355       .  A
N1533      N1535   1.307       .  A
N1533      N1534   1.334       .  A
N1533     Mn1549   2.267       .  S
N1534      C1540   1.370       .  A
N1535      N1536   1.301       .  A
N1535     Mn1560   2.111       .  S
N1536      C1540   1.321       .  A
N1537      N1538   1.331       .  A
N1537     Mn1549   2.229       .  S
N1538      C1539   1.363       .  A
C1540      C2091   1.459       .  S
N1541      N1547   1.324       .  A
N1541      N1542   1.315       .  A
N1541     Mn2291   2.205       .  S
N1542      C1550   1.347       .  A
N1543      N1544   1.330       .  A
N1543      N1545   1.323       .  A
N1543     Mn1549   2.257       .  S
N1544      C1551   1.360       .  A
N1545      N1546   1.318       .  A
N1545     Mn1571   2.167       .  S
N1546      C1551   1.338       .  A
N1547      N1548   1.320       .  A
N1547     Mn2269   2.220       .  S
N1548      C1550   1.353       .  A
Mn1549     N2267   2.220   1_545  S
Mn1549    Cl1573   2.603       .  S
C1550      C1595   1.444       .  S
C1551      C2439   1.476   1_545  S
N1552      N1553   1.316       .  A
N1552      N1558   1.313       .  A
N1552     Mn1560   2.189       .  S
N1553      C1561   1.340       .  A
N1554      N1556   1.306       .  A
N1554      N1555   1.322       .  A
N1554     Mn1572   2.219       .  S
N1555      C1562   1.359       .  A
N1556      N1557   1.306       .  A
N1556     Mn1560   2.078       .  S
N1557      C1562   1.335       .  A
N1558      N1559   1.332       .  A
N1558     Mn1572   2.223       .  S
N1559      C1561   1.362       .  A
Mn1560    Cl1573   2.446       .  S
C1561      C1989   1.478       .  S
C1562      C1607   1.425       .  S
N1563      N1564   1.330       .  A
N1563      N1569   1.314       .  A
N1563     Mn1571   2.253       .  S
N1564      C1574   1.368       .  A
N1565      N1566   1.329       .  A
N1565      N1567   1.310       .  A
N1565     Mn1572   2.223       .  S
N1566      C1575   1.361       .  A
N1567      N2288   1.325       .  A
N1567     Mn1571   2.211       .  S
N1568      N2287   1.325       .  A
N1568      C2295   1.353       .  A
N1569      N1570   1.319       .  A
N1569     Mn1572   2.195       .  S
N1570      C1574   1.352       .  A
Mn1571     N2261   2.205   1_545  S
Mn1571    Cl1573   2.484       .  S
Mn1572    Cl1573   2.567       .  S
C1574      C1641   1.470       .  S
C1575      N2288   1.353       .  A
N1576      N1577   1.327       .  A
N1576      N1582   1.319       .  A
N1576     Mn1605   2.264       .  S
N1577      C1584   1.356       .  A
N1578      N1580   1.305       .  A
N1578      N1579   1.337       .  A
N1578     Mn1594   2.273       .  S
N1579      C1585   1.371       .  A
N1580      N1581   1.302       .  A
N1580     Mn1605   2.111       .  S
N1581      C1585   1.323       .  A
N1582      N1583   1.328       .  A
N1582     Mn1594   2.227       .  S
N1583      C1584   1.362       .  A
C1585      C2034   1.465       .  S
N1586      N1592   1.324       .  A
N1586      N1587   1.313       .  A
N1586     Mn1616   2.203       .  S
N1587      C1595   1.345       .  A
N1588      N1589   1.323       .  A
N1588      N1590   1.322       .  A
N1588     Mn1594   2.249       .  S
N1589      C1596   1.359       .  A
N1590      N1591   1.322       .  A
N1590     Mn1616   2.129       .  S
N1591      C1596   1.337       .  A
N1592      N1593   1.321       .  A
N1592     Mn1594   2.219       .  S
N1593      C1595   1.355       .  A
Mn1594    Cl1618   2.590       .  S
C1596      C1686   1.459       .  S
N1597      N1598   1.320       .  A
N1597      N1603   1.314       .  A
N1597     Mn1605   2.197       .  S
N1598      C1606   1.344       .  A
N1599      N1601   1.306       .  A
N1599      N1600   1.320       .  A
N1599     Mn1617   2.206       .  S
N1600      C1607   1.357       .  A
N1601      N1602   1.309       .  A
N1601     Mn1605   2.098       .  S
N1602      C1607   1.337       .  A
N1603      N1604   1.322       .  A
N1603     Mn1617   2.180       .  S
N1604      C1606   1.352       .  A
Mn1605    Cl1618   2.440       .  S
C1606      C2136   1.464       .  S
N1608      N1609   1.330       .  A
N1608      N1614   1.313       .  A
N1608     Mn1616   2.268       .  S
N1609      C1619   1.372       .  A
N1610      N1611   1.331       .  A
N1610      N1612   1.307       .  A
N1610     Mn1617   2.238       .  S
N1611      C1620   1.366       .  A
N1612      N1613   1.319       .  A
N1612     Mn1616   2.164       .  S
N1613      C1620   1.343       .  A
N1614      N1615   1.316       .  A
N1614     Mn1617   2.162       .  S
N1615      C1619   1.346       .  A
Mn1616    Cl1618   2.472       .  S
Mn1617    Cl1618   2.576       .  S
C1619      C1776   1.460       .  S
N1621      N1622   1.330       .  A
N1621      N1627   1.313       .  A
N1621     Mn1650   2.208       .  S
N1622      C1629   1.357       .  A
N1623      N1625   1.311       .  A
N1623      N1624   1.309       .  A
N1623     Mn1639   2.102       .  S
N1624      C2350   1.336       .  A
N1625      N1626   1.322   1_554  A
N1625     Mn1650   2.226       .  S
N1626      C2350   1.359   1_556  A
N1627      N1628   1.314       .  A
N1627     Mn1639   2.181       .  S
N1628      C1629   1.343       .  A
C1630      N2344   1.336       .  A
C1630      N2346   1.359   1_554  A
C1630      C1709   1.440       .  S
N1631      N1637   1.319       .  A
N1631      N1632   1.320   1_554  A
N1631     Mn1661   2.188   1_554  S
N1632      C1640   1.353   1_556  A
N1633      N1634   1.304       .  A
N1633      N1635   1.309       .  A
N1633     Mn1639   2.120       .  S
N1634      C1641   1.324       .  A
N1635      N1636   1.338       .  A
N1635     Mn1661   2.274   1_554  S
N1636      C1641   1.370       .  A
N1637      N1638   1.328       .  A
N1637     Mn1639   2.270       .  S
N1638      C1640   1.358       .  A
Mn1639    Cl1663   2.462   1_554  S
C1640      C1742   1.482   1_554  S
N1642      N1643   1.318       .  A
N1642      N1648   1.316       .  A
N1642     Mn1650   2.204   1_556  S
N1643      C1651   1.351       .  A
N1644      N1646   1.308       .  A
N1644      N1645   1.322       .  A
N1644     Mn1662   2.186       .  S
N1645      C1652   1.349       .  A
N1646      N1647   1.324   1_556  A
N1646     Mn1650   2.204   1_556  S
N1647      C1652   1.358   1_554  A
N1648      N1649   1.326       .  A
N1648     Mn1662   2.216       .  S
N1649      C1651   1.356       .  A
Mn1650    Cl1663   2.564   1_554  S
C1651      C1821   1.469       .  S
C1652      C1787   1.470       .  S
N1653      N1654   1.320   1_556  A
N1653      N1659   1.321       .  A
N1653     Mn1661   2.221       .  S
N1654      C1664   1.357   1_554  A
N1655      N1656   1.317       .  A
N1655      N1657   1.322       .  A
N1655     Mn1662   2.150       .  S
N1656      C1665   1.337       .  A
N1657      N1658   1.328       .  A
N1657     Mn1661   2.255       .  S
N1658      C1665   1.358       .  A
N1659      N1660   1.310       .  A
N1659     Mn1662   2.160       .  S
N1660      C1664   1.336       .  A
Mn1661    Cl1663   2.586       .  S
Mn1662    Cl1663   2.488       .  S
C1664      C1675   1.437   1_556  S
C1665      C1911   1.471       .  S
N1666      N1667   1.325       .  A
N1666      N1672   1.314       .  A
N1666     Mn1695   2.207       .  S
N1667      C1674   1.358       .  A
N1668      N1670   1.309       .  A
N1668      N1669   1.310       .  A
N1668     Mn1684   2.082       .  S
N1669      C1675   1.336       .  A
N1670      N1671   1.319   1_554  A
N1670     Mn1695   2.231       .  S
N1671      C1675   1.358   1_556  A
N1672      N1673   1.317       .  A
N1672     Mn1684   2.178       .  S
N1673      C1674   1.336       .  A
N1676      N1682   1.320       .  A
N1676      N1677   1.331   1_554  A
N1676     Mn1706   2.245       .  S
N1677      C1685   1.364   1_556  A
N1678      N1679   1.299       .  A
N1678      N1680   1.302       .  A
N1678     Mn1684   2.093       .  S
N1679      C1686   1.315       .  A
N1680      N1681   1.336       .  A
N1680     Mn1706   2.270       .  S
N1681      C1686   1.375       .  A
N1682      N1683   1.329       .  A
N1682     Mn1684   2.275       .  S
N1683      C1685   1.359       .  A
Mn1684    Cl1708   2.468       .  S
C1685      C1775   1.509       .  S
N1687      N1688   1.318       .  A
N1687      N1693   1.315       .  A
N1687     Mn1695   2.189   1_556  S
N1688      C1696   1.351       .  A
N1689      N1691   1.309       .  A
N1689      N1690   1.327       .  A
N1689     Mn1707   2.195       .  S
N1690      C1697   1.350       .  A
N1691      N1692   1.333   1_556  A
N1691     Mn1695   2.259   1_556  S
N1692      C1697   1.368   1_554  A
N1693      N1694   1.327       .  A
N1693     Mn1707   2.245       .  S
N1694      C1696   1.367       .  A
Mn1695    Cl1708   2.553       .  S
C1696      C1854   1.459       .  S
C1697      C1730   1.509   1_556  S
N1698      N1699   1.317   1_556  A
N1698      N1704   1.325       .  A
N1698     Mn1706   2.234   1_556  S
N1699      C1709   1.356       .  A
N1700      N1701   1.324       .  A
N1700      N1702   1.324       .  A
N1700     Mn1707   2.151       .  S
N1701      C1710   1.339       .  A
N1702      N1703   1.322       .  A
N1702     Mn1706   2.243   1_556  S
N1703      C1710   1.356       .  A
N1704      N1705   1.314       .  A
N1704     Mn1707   2.172       .  S
N1705      C1709   1.340   1_556  A
Mn1706    Cl1708   2.586       .  S
Mn1707    Cl1708   2.506   1_556  S
C1710      C1944   1.465       .  S
N1711      N1712   1.325       .  A
N1711      N1717   1.314       .  A
N1711     Mn1740   2.213       .  S
N1712      C1719   1.357       .  A
N1713      N1715   1.305       .  A
N1715      N1716   1.323   1_554  A
N1715     Mn1740   2.218       .  S
N1716      C1720   1.361       .  A
N1717      N1718   1.323       .  A
N1718      C1719   1.342       .  A
C1719      C2271   1.476       .  S
N1721      N1727   1.318       .  A
N1721      N1722   1.335   1_554  A
N1721     Mn2471   2.276       .  S
N1722      C1730   1.371   1_556  A
N1723      N1724   1.299       .  A
N1723      N1725   1.306   1_565  A
N1723     Mn2449   2.091       .  S
N1724      C1731   1.321   1_565  A
N1725      N1726   1.335       .  A
N1725     Mn1751   2.258       .  S
N1726      C1731   1.369       .  A
N1727      N1728   1.324       .  A
N1727     Mn1729   2.231       .  S
N1728      C1730   1.349       .  A
Mn1729     N2443   2.091       .  S
Mn1729    Cl2473   2.462   1_655  S
C1731      C2237   1.454   1_545  S
N1732      N1733   1.314       .  A
N1732      N2458   1.318       .  A
N1732     Mn1740   2.185   1_556  S
N1733      C1741   1.344       .  A
N1734      N1736   1.309       .  A
N1734      N1735   1.319       .  A
N1734     Mn1752   2.196       .  S
N1735      C1742   1.350       .  A
N1736      N1737   1.329   1_556  A
N1736     Mn2460   2.207   1_546  S
N1737      C1742   1.359   1_554  A
N1738      N2452   1.318       .  A
N1738      N2459   1.334       .  A
N1738     Mn1752   2.273   1_565  S
N1739      N2458   1.334       .  A
N1739      C1741   1.368       .  A
Mn1740     N2456   2.207   1_554  S
C1741      C1956   1.481       .  S
N1743      N1744   1.323       .  A
N1743      N1749   1.326   1_654  A
N1743     Mn1751   2.247       .  S
N1744      C1754   1.358   1_655  A
N1745      N1746   1.324       .  A
N1745      N1747   1.323       .  A
N1746      C1755   1.341       .  A
N1747      N1748   1.320       .  A
N1747     Mn1751   2.231   1_556  S
N1748      C1755   1.355       .  A
Mn1751     N2441   2.275   1_545  S
Mn1751    Cl1753   2.588   1_645  S
Cl1753    Mn2449   2.462   1_455  S
C1755      C1809   1.457       .  S
N1756      N1757   1.323       .  A
N1756      N1762   1.314       .  A
N1756     Mn1785   2.198       .  S
N1757      C1764   1.355       .  A
N1758      N1760   1.307   1_455  A
N1760      N1761   1.324   1_554  A
N1760     Mn1785   2.227       .  S
N1761      C1765   1.364   1_655  A
N1762      N1763   1.323       .  A
N1763      C1764   1.343       .  A
N1766      N1772   1.319       .  A
N1766      N1767   1.333   1_554  A
N1766     Mn1796   2.254       .  S
N1767      C1775   1.366   1_556  A
N1768      N1769   1.300       .  A
N1768      N1770   1.308       .  A
N1768     Mn1774   2.091       .  S
N1769      C1776   1.320       .  A
N1770      N1771   1.338       .  A
N1770     Mn1796   2.268       .  S
N1771      C1776   1.369       .  A
N1772      N1773   1.327       .  A
N1772     Mn1774   2.255       .  S
N1773      C1775   1.354       .  A
Mn1774    Cl1798   2.437       .  S
N1777      N1778   1.313       .  A
N1777      N1783   1.317       .  A
N1777     Mn1785   2.166   1_556  S
N1778      C1786   1.342       .  A
N1779      N1781   1.308       .  A
N1779      N1780   1.314       .  A
N1779     Mn1797   2.149       .  S
N1780      C1787   1.339       .  A
N1781      N1782   1.331   1_556  A
N1781     Mn1785   2.231   1_556  S
N1782      C1787   1.366   1_554  A
N1783      N1784   1.333       .  A
N1783     Mn1797   2.278       .  S
N1784      C1786   1.368       .  A
C1786      C1866   1.477       .  S
N1788      N1789   1.324       .  A
N1788      N1794   1.324   1_554  A
N1788     Mn1796   2.239       .  S
N1789      C1799   1.358       .  A
N1790      N1791   1.322       .  A
N1790      N1792   1.324       .  A
N1791      C1800   1.337       .  A
N1792      N1793   1.322       .  A
N1792     Mn1796   2.246   1_556  S
N1793      C1800   1.358       .  A
Mn1796    Cl1798   2.604       .  S
C1800      C1899   1.454       .  S
N1801      N1802   1.334       .  A
N1801      N1807   1.308       .  A
N1801     Mn1830   2.278       .  S
N1802      C1809   1.372       .  A
N1803      N1805   1.318       .  A
N1803      N2524   1.324   1_545  A
N1803     Mn1819   2.238       .  S
N1804      N2523   1.324       .  A
N1804      C1810   1.351       .  A
N1805      N1806   1.328       .  A
N1805     Mn1830   2.226       .  S
N1806      C2530   1.362   1_545  A
N1807      N1808   1.300       .  A
N1807     Mn1819   2.094       .  S
N1808      C1809   1.320       .  A
C1810      N2526   1.362       .  A
N1811      N1817   1.306       .  A
N1811      N1812   1.324       .  A
N1811     Mn2561   2.234       .  S
N1812      C1820   1.363       .  A
N1813      N1814   1.316       .  A
N1813      N1815   1.312       .  A
N1813     Mn1819   2.191       .  S
N1814      C1821   1.342       .  A
N1815      N1816   1.328       .  A
N1815     Mn1841   2.198       .  S
N1816      C1821   1.358       .  A
N1817      N1818   1.308       .  A
N1817     Mn2539   2.081       .  S
N1818      C1820   1.334       .  A
Mn1819     N2537   2.081   1_545  S
Mn1819    Cl1843   2.450       .  S
C1820      C1865   1.434       .  S
N1822      N1823   1.331       .  A
N1822      N1828   1.322       .  A
N1822     Mn1830   2.277       .  S
N1823      C1831   1.364       .  A
N1824      N1826   1.321       .  A
N1824      N1825   1.316       .  A
N1824     Mn1842   2.208       .  S
N1825      C1832   1.347       .  A
N1826      N1827   1.320       .  A
N1826     Mn1830   2.209       .  S
N1827      C1832   1.354       .  A
N1828      N1829   1.316       .  A
N1828     Mn1842   2.137       .  S
N1829      C1831   1.332       .  A
Mn1830    Cl1843   2.592       .  S
C1831      C2101   1.476       .  S
C1832      C1877   1.447       .  S
N1833      N1834   1.330       .  A
N1833      N1839   1.308       .  A
N1833     Mn1841   2.240       .  S
N1834      C1844   1.366       .  A
N1835      N1836   1.324       .  A
N1835      N1837   1.310       .  A
N1835     Mn1842   2.238       .  S
N1836      C1845   1.367   1_545  A
N1837      N1838   1.317   1_545  A
N1837     Mn1841   2.165       .  S
N1838      C1845   1.349       .  A
N1839      N1840   1.317       .  A
N1839     Mn1842   2.157       .  S
N1840      C1844   1.342       .  A
Mn1841     N2531   2.234   1_545  S
Mn1841    Cl1843   2.582       .  S
Mn1842    Cl1843   2.453       .  S
C1844      C1934   1.474       .  S
C1845      C2745   1.452       .  S
N1846      N1847   1.336       .  A
N1846      N1852   1.306       .  A
N1846     Mn1875   2.261       .  S
N1847      C1854   1.369       .  A
N1848      N1850   1.318       .  A
N1848      N1849   1.330       .  A
N1848     Mn1864   2.276       .  S
N1849      C1855   1.359       .  A
N1850      N1851   1.333       .  A
N1850     Mn1875   2.250       .  S
N1851      C1855   1.366       .  A
N1852      N1853   1.301       .  A
N1852     Mn1864   2.103       .  S
N1853      C1854   1.323       .  A
C1855      C1945   1.517       .  S
N1856      N1862   1.307       .  A
N1856      N1857   1.325       .  A
N1856     Mn1886   2.238       .  S
N1857      C1865   1.363       .  A
N1858      N1859   1.318       .  A
N1858      N1860   1.313       .  A
N1858     Mn1864   2.207       .  S
N1859      C1866   1.346       .  A
N1860      N1861   1.331       .  A
N1860     Mn1886   2.193       .  S
N1861      C1866   1.355       .  A
N1862      N1863   1.307       .  A
N1862     Mn1864   2.081       .  S
N1863      C1865   1.333       .  A
Mn1864    Cl1888   2.467       .  S
N1867      N1868   1.319       .  A
N1867      N1873   1.325       .  A
N1867     Mn1875   2.239       .  S
N1868      C1876   1.355       .  A
N1869      N1871   1.327       .  A
N1869      N1870   1.313       .  A
N1869     Mn1887   2.203       .  S
N1870      C1877   1.344       .  A
N1871      N1872   1.322       .  A
N1871     Mn1875   2.239       .  S
N1872      C1877   1.356       .  A
N1873      N1874   1.324       .  A
N1873     Mn1887   2.167       .  S
N1874      C1876   1.342       .  A
Mn1875    Cl1888   2.586       .  S
C1876      C2070   1.460       .  S
N1878      N1879   1.328       .  A
N1878      N1884   1.309       .  A
N1878     Mn1886   2.216       .  S
N1879      C1889   1.361       .  A
N1880      N1881   1.335       .  A
N1880      N1882   1.317       .  A
N1880     Mn1887   2.273       .  S
N1881      C1890   1.368       .  A
N1882      N1883   1.311       .  A
N1882     Mn1886   2.167       .  S
N1883      C1890   1.341       .  A
N1884      N1885   1.325       .  A
N1884     Mn1887   2.211       .  S
N1885      C1889   1.353       .  A
Mn1886    Cl1888   2.581       .  S
Mn1887    Cl1888   2.490       .  S
C1890      C2146   1.477       .  S
N1891      N1892   1.334       .  A
N1891      N1897   1.303       .  A
N1891     Mn1920   2.270       .  S
N1892      C1899   1.374       .  A
N1893      N1895   1.317       .  A
N1893      N1894   1.326       .  A
N1893     Mn1909   2.248       .  S
N1894      C1900   1.354       .  A
N1895      N1896   1.328       .  A
N1895     Mn1920   2.228       .  S
N1896      C1900   1.362       .  A
N1897      N1898   1.299       .  A
N1897     Mn1909   2.085       .  S
N1898      C1899   1.316       .  A
N1901      N1907   1.307       .  A
N1901      N1902   1.325       .  A
N1901     Mn1931   2.241       .  S
N1902      C1910   1.364       .  A
N1903      N1904   1.320       .  A
N1903      N1905   1.313       .  A
N1903     Mn1909   2.186       .  S
N1904      C1911   1.340       .  A
N1905      N1906   1.325       .  A
N1905     Mn1931   2.198       .  S
N1906      C1911   1.355       .  A
N1907      N1908   1.306       .  A
N1907     Mn1909   2.081       .  S
N1908      C1910   1.333       .  A
Mn1909    Cl1933   2.449       .  S
C1910      C1955   1.434       .  S
N1912      N1913   1.320       .  A
N1912      N1918   1.322       .  A
N1912     Mn1920   2.237       .  S
N1913      C1921   1.357       .  A
N1914      N1916   1.323       .  A
N1914      N1915   1.313       .  A
N1914     Mn1932   2.202       .  S
N1915      C1922   1.345       .  A
N1916      N1917   1.321       .  A
N1916     Mn1920   2.212       .  S
N1917      C1922   1.354       .  A
N1918      N1919   1.322       .  A
N1918     Mn1932   2.145       .  S
N1919      C1921   1.341       .  A
Mn1920    Cl1933   2.591       .  S
C1921      C2115   1.452       .  S
C1922      C1967   1.444       .  S
N1923      N1924   1.329       .  A
N1923      N1929   1.308       .  A
N1923     Mn1931   2.228       .  S
N1924      C1934   1.364       .  A
N1925      N1926   1.337       .  A
N1925      N1927   1.317       .  A
N1925     Mn1932   2.281       .  S
N1926      C1935   1.370       .  A
N1927      N1928   1.311       .  A
N1927     Mn1931   2.167       .  S
N1928      C1935   1.341       .  A
N1929      N1930   1.318       .  A
N1929     Mn1932   2.165       .  S
N1930      C1934   1.343       .  A
Mn1931    Cl1933   2.571       .  S
Mn1932    Cl1933   2.481       .  S
C1935      C2056   1.481       .  S
N1936      N1937   1.335       .  A
N1936      N1942   1.306       .  A
N1936     Mn1965   2.280       .  S
N1937      C1944   1.372       .  A
N1938      N1940   1.319       .  A
N1938      N1939   1.330       .  A
N1938     Mn1954   2.286       .  S
N1939      C1945   1.359       .  A
N1940      N1941   1.333       .  A
N1940     Mn1965   2.238       .  S
N1941      C1945   1.365       .  A
N1942      N1943   1.303       .  A
N1942     Mn1954   2.114       .  S
N1943      C1944   1.320       .  A
N1946      N1952   1.307       .  A
N1946      N1947   1.323       .  A
N1946     Mn1976   2.231       .  S
N1947      C1955   1.361       .  A
N1948      N1949   1.317       .  A
N1948      N1950   1.313       .  A
N1948     Mn1954   2.205       .  S
N1949      C1956   1.343       .  A
N1950      N1951   1.334       .  A
N1950     Mn1976   2.206       .  S
N1951      C1956   1.358       .  A
N1952      N1953   1.309       .  A
N1952     Mn1954   2.086       .  S
N1953      C1955   1.336       .  A
Mn1954    Cl1978   2.444       .  S
N1957      N1958   1.332       .  A
N1957      N1963   1.324       .  A
N1957     Mn1965   2.275       .  S
N1958      C1966   1.363       .  A
N1959      N1961   1.324       .  A
N1959      N1960   1.316   1_565  A
N1959     Mn2697   2.208       .  S
N1960      C1967   1.347       .  A
N1961      N1962   1.319   1_565  A
N1961     Mn2685   2.216       .  S
N1962      C1967   1.353       .  A
N1963      N1964   1.316       .  A
N1963     Mn1977   2.151       .  S
N1964      C1966   1.333       .  A
Mn1965     N2681   2.216       .  S
Mn1965    Cl1978   2.604       .  S
C1966      C2731   1.478       .  S
N1968      N1969   1.328       .  A
N1968      N1974   1.309       .  A
N1968     Mn1976   2.225       .  S
N1969      C1979   1.361       .  A
N1970      N1971   1.326       .  A
N1970      N1972   1.312       .  A
N1970     Mn1977   2.245       .  S
N1971      C1980   1.367       .  A
N1972      N1973   1.317       .  A
N1972     Mn1976   2.176       .  S
N1973      C1980   1.351       .  A
N1974      N2695   1.324       .  A
N1974     Mn1977   2.198       .  S
N1975      N2694   1.324       .  A
N1975      C2699   1.351       .  A
Mn1976    Cl1978   2.568       .  S
Mn1977     N2679   2.208       .  S
Mn1977    Cl1978   2.474       .  S
C1979      N2695   1.351       .  A
C1980      C2160   1.458       .  S
N1981      N1982   1.320       .  A
N1981      N2707   1.320       .  A
N1981     Mn2010   2.231       .  S
N1982      C1989   1.354       .  A
N1983      N1985   1.308       .  A
N1983      N1984   1.324       .  A
N1983     Mn1999   2.205       .  S
N1984      C1990   1.353       .  A
N1985      N1986   1.328       .  A
N1985     Mn2730   2.211       .  S
N1986      C1990   1.359       .  A
N1987      N2701   1.320       .  A
N1987      N2708   1.328       .  A
N1987     Mn1999   2.229       .  S
N1988      N2707   1.328       .  A
N1988      C1989   1.358       .  A
C1990      C2159   1.491       .  S
N1991      N1997   1.325       .  A
N1991      N1992   1.322       .  A
N1991     Mn2021   2.252       .  S
N1992      C2000   1.359       .  A
N1993      N1994   1.326       .  A
N1993      N1995   1.323       .  A
N1993     Mn1999   2.158       .  S
N1994      C2001   1.341       .  A
N1995      N1996   1.317       .  A
N1995     Mn2021   2.213       .  S
N1996      C2001   1.350       .  A
N1997      N1998   1.311       .  A
N1997     Mn1999   2.164       .  S
N1998      C2000   1.338       .  A
Mn1999    Cl2023   2.518       .  S
C2000      C2057   1.444       .  S
N2002      N2003   1.327       .  A
N2002      N2008   1.318       .  A
N2002     Mn2010   2.245       .  S
N2003      C2011   1.361   1_545  A
N2004      N2006   1.308       .  A
N2004      N2005   1.309       .  A
N2004     Mn2022   2.098       .  S
N2005      C2012   1.336       .  A
N2006      N2007   1.322       .  A
N2006     Mn2010   2.213       .  S
N2007      C2012   1.357       .  A
N2008      N2009   1.321       .  A
N2008     Mn2022   2.171       .  S
N2009      C2011   1.339   1_545  A
Mn2010     N2705   2.211   1_545  S
Mn2010    Cl2743   2.555       .  S
C2011      C2686   1.478       .  S
C2012      C2045   1.440       .  S
N2013      N2014   1.331       .  A
N2013      N2019   1.321       .  A
N2013     Mn2741   2.268   1_545  S
N2014      C2024   1.367       .  A
N2015      N2016   1.300       .  A
N2015      N2017   1.306       .  A
N2015     Mn2742   2.093       .  S
N2016      C2025   1.324       .  A
N2017      N2018   1.334       .  A
N2017     Mn2021   2.239       .  S
N2018      C2025   1.366       .  A
N2019      N2020   1.326       .  A
N2019     Mn2022   2.242       .  S
N2020      C2024   1.353       .  A
Mn2021     N2733   2.268       .  S
Mn2021    Cl2023   2.572       .  S
Mn2022     N2735   2.093   1_545  S
Mn2022    Cl2743   2.490       .  S
Cl2023    Mn2730   2.555       .  S
Cl2023    Mn2742   2.490       .  S
C2024      C2080   1.504       .  S
C2025      C2565   1.452       .  S
N2026      N2027   1.321       .  A
N2026      N2032   1.315       .  A
N2026     Mn2055   2.206       .  S
N2027      C2034   1.355       .  A
N2028      N2030   1.309       .  A
N2028      N2029   1.331       .  A
N2028     Mn2044   2.230       .  S
N2029      C2035   1.358       .  A
N2030      N2031   1.328       .  A
N2030     Mn2055   2.222       .  S
N2031      C2035   1.359       .  A
N2032      N2033   1.327       .  A
N2032     Mn2044   2.238       .  S
N2033      C2034   1.364       .  A
C2035      C2114   1.507       .  S
N2036      N2042   1.324       .  A
N2036      N2037   1.316       .  A
N2036     Mn2066   2.225       .  S
N2037      C2045   1.354       .  A
N2038      N2039   1.319       .  A
N2038      N2040   1.321       .  A
N2038     Mn2044   2.175       .  S
N2039      C2046   1.342       .  A
N2040      N2041   1.325       .  A
N2040     Mn2066   2.221       .  S
N2041      C2046   1.352       .  A
N2042      N2043   1.315       .  A
N2042     Mn2044   2.177       .  S
N2043      C2045   1.342       .  A
Mn2044    Cl2068   2.508       .  S
N2047      N2048   1.336       .  A
N2047      N2053   1.316       .  A
N2047     Mn2055   2.223       .  S
N2048      C2056   1.361       .  A
N2049      N2051   1.308       .  A
N2049      N2050   1.314       .  A
N2049     Mn2067   2.098       .  S
N2050      C2057   1.339       .  A
N2051      N2052   1.319       .  A
N2051     Mn2055   2.226       .  S
N2052      C2057   1.357       .  A
N2053      N2054   1.313       .  A
N2053     Mn2067   2.198       .  S
N2054      C2056   1.342       .  A
Mn2055    Cl2068   2.550       .  S
N2058      N2059   1.325       .  A
N2058      N2064   1.319       .  A
N2058     Mn2066   2.205       .  S
N2059      C2069   1.356       .  A
N2060      N2061   1.302       .  A
N2060      N2062   1.306       .  A
N2060     Mn2067   2.102       .  S
N2061      C2070   1.321       .  A
N2062      N2063   1.335       .  A
N2062     Mn2066   2.258       .  S
N2063      C2070   1.370       .  A
N2064      N2065   1.328       .  A
N2064     Mn2067   2.281       .  S
N2065      C2069   1.361       .  A
Mn2066    Cl2068   2.579       .  S
Mn2067    Cl2068   2.476       .  S
C2069      C2125   1.495       .  S
N2071      N2072   1.322       .  A
N2071      N2077   1.317       .  A
N2071     Mn2100   2.219       .  S
N2072      C2079   1.355       .  A
N2073      N2075   1.308       .  A
N2073      N2074   1.327       .  A
N2073     Mn2089   2.201       .  S
N2074      C2080   1.352       .  A
N2075      N2076   1.331       .  A
N2075     Mn2100   2.239       .  S
N2076      C2080   1.364       .  A
N2077      N2078   1.329       .  A
N2077     Mn2089   2.249       .  S
N2078      C2079   1.367       .  A
N2081      N2087   1.326       .  A
N2081      N2082   1.319       .  A
N2081     Mn2111   2.245       .  S
N2082      C2090   1.357       .  A
N2083      N2084   1.326       .  A
N2083      N2085   1.323       .  A
N2084      C2091   1.341       .  A
N2085      N2086   1.319       .  A
N2085     Mn2111   2.219       .  S
N2086      C2091   1.352       .  A
N2092      N2093   1.328       .  A
N2092      N2098   1.318       .  A
N2092     Mn2100   2.238       .  S
N2093      C2101   1.362       .  A
N2094      N2095   1.310       .  A
N2094     Mn2112   2.084       .  S
N2096      N2097   1.318       .  A
N2096     Mn2100   2.209       .  S
N2097      C2102   1.354       .  A
N2098      N2099   1.320       .  A
N2099      C2101   1.336       .  A
N2103      N2104   1.333       .  A
N2103      N2109   1.321       .  A
N2103     Mn2111   2.265       .  S
N2104      C2114   1.366       .  A
N2105      N2106   1.298       .  A
N2105      N2107   1.302       .  A
N2105     Mn2112   2.071       .  S
N2106      C2115   1.318       .  A
N2107      N2108   1.335       .  A
N2107     Mn2111   2.258       .  S
N2108      C2115   1.373       .  A
N2109      N2110   1.325       .  A
N2109     Mn2112   2.251       .  S
N2110      C2114   1.355       .  A
Mn2111    Cl2113   2.572       .  S
Mn2112    Cl2113   2.489       .  S
N2116      N2117   1.318       .  A
N2116      N2122   1.318       .  A
N2116     Mn2145   2.213       .  S
N2117      C2124   1.353       .  A
N2118      N2120   1.309       .  A
N2118      N2119   1.328       .  A
N2118     Mn2134   2.232       .  S
N2119      C2125   1.359       .  A
N2120      N2121   1.326       .  A
N2120     Mn2145   2.197       .  S
N2121      C2125   1.355       .  A
N2122      N2123   1.324       .  A
N2122     Mn2134   2.207       .  S
N2123      C2124   1.354       .  A
N2126      N2127   1.318       .  A
N2126     Mn2156   2.228       .  S
N2127      C2135   1.355       .  A
N2128      N2129   1.320       .  A
N2128      N2130   1.322       .  A
N2129      C2136   1.343       .  A
N2130      N2131   1.323       .  A
N2130     Mn2156   2.218       .  S
N2131      C2136   1.351       .  A
N2132      N2133   1.310       .  A
N2132     Mn2134   2.159       .  S
N2137      N2138   1.334       .  A
N2137      N2143   1.316       .  A
N2137     Mn2145   2.223       .  S
N2138      C2146   1.359       .  A
N2139      N2140   1.310       .  A
N2139     Mn2157   2.097       .  S
N2141      N2142   1.323       .  A
N2141     Mn2145   2.228       .  S
N2142      C2147   1.359       .  A
N2143      N2144   1.314       .  A
N2144      C2146   1.342       .  A
N2148      N2149   1.324       .  A
N2148      N2154   1.319       .  A
N2148     Mn2156   2.214       .  S
N2149      C2159   1.357       .  A
N2150      N2151   1.302       .  A
N2150      N2152   1.308       .  A
N2150     Mn2157   2.110       .  S
N2151      C2160   1.326       .  A
N2152      N2153   1.334       .  A
N2152     Mn2156   2.243       .  S
N2153      C2160   1.366       .  A
N2154      N2155   1.327       .  A
N2154     Mn2157   2.262       .  S
N2155      C2159   1.358       .  A
Mn2156    Cl2158   2.572       .  S
Mn2157    Cl2158   2.490       .  S
N2161      N2162   1.340       .  A
N2161      N2167   1.306       .  A
N2161     Mn2190   2.289       .  S
N2162      C2169   1.374       .  A
N2163      N2165   1.317       .  A
N2163      N2164   1.328       .  A
N2163     Mn2179   2.269       .  S
N2164      C2170   1.357       .  A
N2165      N2166   1.330       .  A
N2165     Mn2190   2.225       .  S
N2166      C2170   1.363       .  A
N2167      N2168   1.303       .  A
N2167     Mn2179   2.114       .  S
N2168      C2169   1.321       .  A
C2169      C2799   1.473       .  S
N2171      N2177   1.308       .  A
N2171      N2172   1.323       .  A
N2171     Mn2201   2.227       .  S
N2172      C2180   1.362       .  A
N2173      N2174   1.321       .  A
N2173      N2175   1.313       .  A
N2173     Mn2179   2.193       .  S
N2174      C2181   1.344       .  A
N2175      N2176   1.323       .  A
N2175     Mn2201   2.183       .  S
N2176      C2181   1.352       .  A
N2177      N2178   1.307       .  A
N2177     Mn2179   2.093       .  S
N2178      C2180   1.334       .  A
Mn2179    Cl2203   2.449       .  S
C2180      C2214   1.431       .  S
C2181      C2766   1.466       .  S
N2182      N2183   1.329       .  A
N2182      N2188   1.325       .  A
N2182     Mn2190   2.262       .  S
N2183      C2191   1.360       .  A
N2184      N2186   1.326       .  A
N2184      N2185   1.313       .  A
N2184     Mn2202   2.196       .  S
N2185      C2192   1.342       .  A
N2186      N2187   1.324       .  A
N2186     Mn2190   2.246       .  S
N2187      C2192   1.358       .  A
N2188      N2189   1.316       .  A
N2188     Mn2202   2.169       .  S
N2189      C2191   1.337       .  A
Mn2190    Cl2203   2.606       .  S
C2191      C2484   1.471       .  S
C2192      C2250   1.451       .  S
N2193      N2194   1.330       .  A
N2193      N2199   1.310       .  A
N2193     Mn2201   2.233       .  S
N2194      C2204   1.363       .  A
N2195      N2196   1.329       .  A
N2195      N2197   1.315       .  A
N2195     Mn2202   2.241       .  S
N2196      C2205   1.362       .  A
N2197      N2198   1.313       .  A
N2197     Mn2201   2.171       .  S
N2198      C2205   1.345       .  A
N2199      N2200   1.325       .  A
N2199     Mn2202   2.212       .  S
N2200      C2204   1.353       .  A
Mn2201    Cl2203   2.589       .  S
Mn2202    Cl2203   2.471       .  S
C2204      C2304   1.499       .  S
C2205      C2349   1.466       .  S
N2206      N2207   1.322       .  A
N2206      N2212   1.308       .  A
N2207      C2214   1.360       .  A
N2208      N2210   1.312       .  A
N2208      N2209   1.314       .  A
N2208     Mn2224   2.182       .  S
N2209      C2215   1.340       .  A
N2210      N2211   1.328       .  A
N2210     Mn2235   2.203       .  S
N2211      C2215   1.359       .  A
N2212      N2213   1.308       .  A
N2213      C2214   1.336       .  A
C2215      C2844   1.464       .  S
N2216      N2222   1.308       .  A
N2216      N2217   1.333       .  A
N2216     Mn2246   2.259       .  S
N2217      C2225   1.368       .  A
N2218      N2220   1.317       .  A
N2218     Mn2224   2.254       .  S
N2219      C2226   1.355       .  A
N2220      N2221   1.327       .  A
N2220     Mn2246   2.213       .  S
N2222      N2223   1.301       .  A
N2222     Mn2224   2.120       .  S
N2223      C2225   1.322       .  A
Mn2224    Cl2248   2.440       .  S
C2225      C2721   1.457       .  S
C2226      C2295   1.494       .  S
N2227      N2228   1.331       .  A
N2227      N2233   1.309       .  A
N2227     Mn2235   2.247       .  S
N2228      C2236   1.367       .  A
N2229      N2231   1.311       .  A
N2229      N2230   1.326       .  A
N2229     Mn2247   2.238       .  S
N2230      C2237   1.366       .  A
N2231      N2232   1.318       .  A
N2231     Mn2235   2.170       .  S
N2232      C2237   1.349       .  A
N2233      N2234   1.320       .  A
N2233     Mn2247   2.169       .  S
N2234      C2236   1.344       .  A
Mn2235    Cl2248   2.570       .  S
N2238      N2239   1.326       .  A
N2238      N2244   1.320       .  A
N2238     Mn2246   2.245       .  S
N2239      C2249   1.359       .  A
N2240      N2241   1.316       .  A
N2240      N2242   1.321       .  A
N2240     Mn2247   2.199       .  S
N2241      C2250   1.346       .  A
N2242      N2243   1.322       .  A
N2242     Mn2246   2.226       .  S
N2243      C2250   1.357       .  A
N2244      N2245   1.315       .  A
N2244     Mn2247   2.139       .  S
N2245      C2249   1.334       .  A
Mn2246    Cl2248   2.595       .  S
Mn2247    Cl2248   2.463       .  S
C2249      C2394   1.463       .  S
N2251      N2252   1.327       .  A
N2251      N2257   1.318       .  A
N2251     Mn2280   2.263       .  S
N2252      C2259   1.355       .  A
N2253      N2255   1.307       .  A
N2253      N2254   1.334       .  A
N2253     Mn2269   2.267       .  S
N2254      C2260   1.370       .  A
N2255      N2256   1.301       .  A
N2255     Mn2280   2.111       .  S
N2256      C2260   1.321       .  A
N2257      N2258   1.331       .  A
N2257     Mn2269   2.229       .  S
N2258      C2259   1.363       .  A
C2260      C2811   1.459       .  S
N2261      N2267   1.324       .  A
N2261      N2262   1.315       .  A
N2262      C2270   1.347       .  A
N2263      N2264   1.330       .  A
N2263      N2265   1.323       .  A
N2263     Mn2269   2.257       .  S
N2264      C2271   1.360       .  A
N2265      N2266   1.318       .  A
N2265     Mn2291   2.167       .  S
N2266      C2271   1.338       .  A
N2267      N2268   1.320       .  A
N2268      C2270   1.353       .  A
Mn2269    Cl2293   2.603       .  S
C2270      C2315   1.444       .  S
N2272      N2273   1.316       .  A
N2272      N2278   1.313       .  A
N2272     Mn2280   2.189       .  S
N2273      C2281   1.340       .  A
N2274      N2276   1.306       .  A
N2274      N2275   1.322       .  A
N2274     Mn2292   2.219       .  S
N2275      C2282   1.359       .  A
N2276      N2277   1.306       .  A
N2276     Mn2280   2.078       .  S
N2277      C2282   1.335       .  A
N2278      N2279   1.332       .  A
N2278     Mn2292   2.222       .  S
N2279      C2281   1.362       .  A
Mn2280    Cl2293   2.446       .  S
C2281      C2709   1.478       .  S
C2282      C2327   1.425       .  S
N2283      N2284   1.330       .  A
N2283      N2289   1.314       .  A
N2283     Mn2291   2.253       .  S
N2284      C2294   1.368       .  A
N2285      N2286   1.329       .  A
N2285      N2287   1.310       .  A
N2285     Mn2292   2.223       .  S
N2286      C2295   1.361       .  A
N2287     Mn2291   2.211       .  S
N2289      N2290   1.319       .  A
N2289     Mn2292   2.195       .  S
N2290      C2294   1.352       .  A
Mn2291    Cl2293   2.484       .  S
Mn2292    Cl2293   2.567       .  S
C2294      C2361   1.470       .  S
N2296      N2297   1.327       .  A
N2296      N2302   1.319       .  A
N2296     Mn2325   2.264       .  S
N2297      C2304   1.356       .  A
N2298      N2300   1.305       .  A
N2298      N2299   1.336       .  A
N2298     Mn2314   2.273       .  S
N2299      C2305   1.371       .  A
N2300      N2301   1.302       .  A
N2300     Mn2325   2.111       .  S
N2301      C2305   1.323       .  A
N2302      N2303   1.328       .  A
N2302     Mn2314   2.228       .  S
N2303      C2304   1.362       .  A
C2305      C2754   1.465       .  S
N2306      N2312   1.324       .  A
N2306      N2307   1.313       .  A
N2306     Mn2336   2.203       .  S
N2307      C2315   1.345       .  A
N2308      N2309   1.323       .  A
N2308      N2310   1.322       .  A
N2308     Mn2314   2.248       .  S
N2309      C2316   1.359       .  A
N2310      N2311   1.322       .  A
N2310     Mn2336   2.130       .  S
N2311      C2316   1.337       .  A
N2312      N2313   1.321       .  A
N2312     Mn2314   2.219       .  S
N2313      C2315   1.355       .  A
Mn2314    Cl2338   2.590       .  S
C2316      C2406   1.459       .  S
N2317      N2318   1.320       .  A
N2317      N2323   1.314       .  A
N2317     Mn2325   2.197       .  S
N2318      C2326   1.344       .  A
N2319      N2321   1.306       .  A
N2319      N2320   1.320       .  A
N2319     Mn2337   2.206       .  S
N2320      C2327   1.357       .  A
N2321      N2322   1.309       .  A
N2321     Mn2325   2.098       .  S
N2322      C2327   1.337       .  A
N2323      N2324   1.322       .  A
N2323     Mn2337   2.180       .  S
N2324      C2326   1.352       .  A
Mn2325    Cl2338   2.440       .  S
C2326      C2856   1.464       .  S
N2328      N2329   1.330       .  A
N2328      N2334   1.313       .  A
N2328     Mn2336   2.269       .  S
N2329      C2339   1.372       .  A
N2330      N2331   1.331       .  A
N2330      N2332   1.307       .  A
N2330     Mn2337   2.238       .  S
N2331      C2340   1.366       .  A
N2332      N2333   1.319       .  A
N2332     Mn2336   2.164       .  S
N2333      C2340   1.343       .  A
N2334      N2335   1.316       .  A
N2334     Mn2337   2.162       .  S
N2335      C2339   1.346       .  A
Mn2336    Cl2338   2.472       .  S
Mn2337    Cl2338   2.576       .  S
C2339      C2496   1.460       .  S
N2341      N2342   1.330       .  A
N2341      N2347   1.313       .  A
N2341     Mn2370   2.208       .  S
N2342      C2349   1.357       .  A
N2343      N2345   1.311       .  A
N2343      N2344   1.309       .  A
N2343     Mn2359   2.102       .  S
N2345      N2346   1.322   1_554  A
N2345     Mn2370   2.226       .  S
N2347      N2348   1.314       .  A
N2347     Mn2359   2.181       .  S
N2348      C2349   1.343       .  A
C2350      C2429   1.440   1_545  S
N2351      N2357   1.319       .  A
N2351      N2352   1.320   1_554  A
N2351     Mn2381   2.188   1_554  S
N2352      C2360   1.353   1_556  A
N2353      N2354   1.304       .  A
N2353      N2355   1.309       .  A
N2353     Mn2359   2.121       .  S
N2354      C2361   1.324       .  A
N2355      N2356   1.338       .  A
N2355     Mn2381   2.274   1_554  S
N2356      C2361   1.370       .  A
N2357      N2358   1.328       .  A
N2357     Mn2359   2.270       .  S
N2358      C2360   1.358       .  A
Mn2359    Cl2383   2.462   1_554  S
C2360      C2462   1.482   1_554  S
N2362      N2363   1.318       .  A
N2362      N2368   1.316       .  A
N2362     Mn2370   2.204   1_556  S
N2363      C2371   1.351       .  A
N2364      N2366   1.308       .  A
N2364      N2365   1.322       .  A
N2364     Mn2382   2.186       .  S
N2365      C2372   1.349       .  A
N2366      N2367   1.324   1_556  A
N2366     Mn2370   2.204   1_556  S
N2367      C2372   1.358   1_554  A
N2368      N2369   1.326       .  A
N2368     Mn2382   2.216       .  S
N2369      C2371   1.356       .  A
Mn2370    Cl2383   2.564   1_554  S
C2371      C2541   1.469       .  S
C2372      C2507   1.470       .  S
N2373      N2374   1.319   1_556  A
N2373      N2379   1.321       .  A
N2373     Mn2381   2.221       .  S
N2374      C2384   1.357   1_554  A
N2375      N2376   1.317       .  A
N2375      N2377   1.322       .  A
N2375     Mn2382   2.150       .  S
N2376      C2385   1.337       .  A
N2377      N2378   1.328       .  A
N2377     Mn2381   2.255       .  S
N2378      C2385   1.358       .  A
N2379      N2380   1.310       .  A
N2379     Mn2382   2.159       .  S
N2380      C2384   1.336       .  A
Mn2381    Cl2383   2.586       .  S
Mn2382    Cl2383   2.488       .  S
C2384      C2395   1.437   1_556  S
C2385      C2631   1.471       .  S
N2386      N2387   1.325       .  A
N2386      N2392   1.314       .  A
N2386     Mn2415   2.204       .  S
N2387      C2394   1.358       .  A
N2388      N2390   1.308       .  A
N2388      N2389   1.310       .  A
N2388     Mn2404   2.080       .  S
N2389      C2395   1.335       .  A
N2390      N2391   1.320   1_554  A
N2390     Mn2415   2.231       .  S
N2391      C2395   1.358   1_556  A
N2392      N2393   1.317       .  A
N2392     Mn2404   2.178       .  S
N2393      C2394   1.336       .  A
N2396      N2402   1.320       .  A
N2396      N2397   1.331   1_554  A
N2396     Mn2426   2.246       .  S
N2397      C2405   1.364   1_556  A
N2398      N2399   1.299       .  A
N2398      N2400   1.301       .  A
N2398     Mn2404   2.092       .  S
N2399      C2406   1.315       .  A
N2400      N2401   1.336       .  A
N2400     Mn2426   2.267       .  S
N2401      C2406   1.375       .  A
N2402      N2403   1.329       .  A
N2402     Mn2404   2.274       .  S
N2403      C2405   1.359       .  A
Mn2404    Cl2428   2.477       .  S
C2405      C2495   1.509       .  S
N2407      N2408   1.318       .  A
N2407      N2413   1.315       .  A
N2407     Mn2415   2.190   1_556  S
N2408      C2416   1.351       .  A
N2409      N2411   1.309       .  A
N2409      N2410   1.327       .  A
N2409     Mn2427   2.194       .  S
N2410      C2417   1.350       .  A
N2411      N2412   1.333   1_556  A
N2411     Mn2415   2.258   1_556  S
N2412      C2417   1.368   1_554  A
N2413      N2414   1.327       .  A
N2413     Mn2427   2.244       .  S
N2414      C2416   1.367       .  A
Mn2415    Cl2428   2.561       .  S
C2416      C2574   1.459       .  S
C2417      C2450   1.509   1_556  S
N2418      N2419   1.317   1_556  A
N2418      N2424   1.326       .  A
N2418     Mn2426   2.235   1_556  S
N2419      C2429   1.355       .  A
N2420      N2421   1.324       .  A
N2420      N2422   1.325       .  A
N2420     Mn2427   2.153       .  S
N2421      C2430   1.339       .  A
N2422      N2423   1.323       .  A
N2422     Mn2426   2.246   1_556  S
N2423      C2430   1.356       .  A
N2424      N2425   1.314       .  A
N2424     Mn2427   2.175       .  S
N2425      C2429   1.340   1_556  A
Mn2426    Cl2428   2.578       .  S
Mn2427    Cl2428   2.498   1_556  S
C2430      C2664   1.465       .  S
N2431      N2432   1.325       .  A
N2431      N2437   1.314       .  A
N2431     Mn2460   2.213       .  S
N2432      C2439   1.357       .  A
N2433      N2435   1.305       .  A
N2435      N2436   1.323   1_554  A
N2435     Mn2460   2.218       .  S
N2436      C2440   1.361       .  A
N2437      N2438   1.323       .  A
N2438      C2439   1.342       .  A
N2441      N2447   1.318       .  A
N2441      N2442   1.335   1_554  A
N2442      C2450   1.371   1_556  A
N2443      N2444   1.299       .  A
N2443      N2445   1.306       .  A
N2444      C2451   1.321       .  A
N2445      N2446   1.335       .  A
N2445     Mn2471   2.258       .  S
N2446      C2451   1.369       .  A
N2447      N2448   1.324       .  A
N2447     Mn2449   2.231       .  S
N2448      C2450   1.349       .  A
N2452      N2453   1.314       .  A
N2452     Mn2460   2.185   1_556  S
N2453      C2461   1.344       .  A
N2454      N2456   1.309       .  A
N2454      N2455   1.319       .  A
N2454     Mn2472   2.196       .  S
N2455      C2462   1.350       .  A
N2456      N2457   1.329   1_556  A
N2457      C2462   1.359   1_554  A
N2458     Mn2472   2.273       .  S
N2459      C2461   1.368       .  A
C2461      C2676   1.481       .  S
N2463      N2464   1.323       .  A
N2463      N2469   1.326   1_654  A
N2463     Mn2471   2.247       .  S
N2464      C2474   1.358   1_655  A
N2465      N2466   1.324       .  A
N2465      N2467   1.323       .  A
N2466      C2475   1.341       .  A
N2467      N2468   1.320       .  A
N2467     Mn2471   2.231   1_556  S
N2468      C2475   1.355       .  A
Mn2471    Cl2473   2.589   1_655  S
C2475      C2529   1.457       .  S
N2476      N2477   1.323       .  A
N2476      N2482   1.314       .  A
N2476     Mn2505   2.198       .  S
N2477      C2484   1.355       .  A
N2478      N2480   1.307   1_455  A
N2480      N2481   1.324   1_554  A
N2480     Mn2505   2.227       .  S
N2481      C2485   1.364   1_655  A
N2482      N2483   1.323       .  A
N2483      C2484   1.343       .  A
N2486      N2492   1.319       .  A
N2486      N2487   1.333   1_554  A
N2486     Mn2516   2.254       .  S
N2487      C2495   1.366   1_556  A
N2488      N2489   1.300       .  A
N2488      N2490   1.308       .  A
N2488     Mn2494   2.091       .  S
N2489      C2496   1.320       .  A
N2490      N2491   1.338       .  A
N2490     Mn2516   2.268       .  S
N2491      C2496   1.369       .  A
N2492      N2493   1.326       .  A
N2492     Mn2494   2.255       .  S
N2493      C2495   1.354       .  A
Mn2494    Cl2518   2.436       .  S
N2497      N2498   1.313       .  A
N2497      N2503   1.317       .  A
N2497     Mn2505   2.166   1_556  S
N2498      C2506   1.342       .  A
N2499      N2501   1.308       .  A
N2499      N2500   1.314       .  A
N2499     Mn2517   2.149       .  S
N2500      C2507   1.339       .  A
N2501      N2502   1.331   1_556  A
N2501     Mn2505   2.232   1_556  S
N2502      C2507   1.366   1_554  A
N2503      N2504   1.333       .  A
N2503     Mn2517   2.278       .  S
N2504      C2506   1.368       .  A
C2506      C2586   1.477       .  S
N2508      N2509   1.324       .  A
N2508      N2514   1.324   1_554  A
N2508     Mn2516   2.239       .  S
N2509      C2519   1.358       .  A
N2510      N2511   1.322       .  A
N2510      N2512   1.324       .  A
N2511      C2520   1.337       .  A
N2512      N2513   1.322       .  A
N2512     Mn2516   2.246   1_556  S
N2513      C2520   1.358       .  A
Mn2516    Cl2518   2.604       .  S
C2520      C2619   1.454       .  S
N2521      N2522   1.334       .  A
N2521      N2527   1.308       .  A
N2521     Mn2550   2.278       .  S
N2522      C2529   1.372       .  A
N2523      N2525   1.318       .  A
N2523     Mn2539   2.238       .  S
N2524      C2530   1.351       .  A
N2525      N2526   1.328       .  A
N2525     Mn2550   2.226       .  S
N2527      N2528   1.300       .  A
N2527     Mn2539   2.094       .  S
N2528      C2529   1.320       .  A
N2531      N2537   1.306       .  A
N2531      N2532   1.324       .  A
N2532      C2540   1.363       .  A
N2533      N2534   1.316       .  A
N2533      N2535   1.312       .  A
N2533     Mn2539   2.191       .  S
N2534      C2541   1.342       .  A
N2535      N2536   1.328       .  A
N2535     Mn2561   2.198       .  S
N2536      C2541   1.358       .  A
N2537      N2538   1.308       .  A
N2538      C2540   1.334       .  A
Mn2539    Cl2563   2.450       .  S
C2540      C2585   1.434       .  S
N2542      N2543   1.331       .  A
N2542      N2548   1.322       .  A
N2542     Mn2550   2.277       .  S
N2543      C2551   1.364       .  A
N2544      N2546   1.321       .  A
N2544      N2545   1.316       .  A
N2544     Mn2562   2.207       .  S
N2545      C2552   1.347       .  A
N2546      N2547   1.320       .  A
N2546     Mn2550   2.209       .  S
N2547      C2552   1.354       .  A
N2548      N2549   1.316       .  A
N2548     Mn2562   2.138       .  S
N2549      C2551   1.332       .  A
Mn2550    Cl2563   2.592       .  S
C2551      C2821   1.476       .  S
C2552      C2597   1.447       .  S
N2553      N2554   1.330       .  A
N2553      N2559   1.308       .  A
N2553     Mn2561   2.240       .  S
N2554      C2564   1.366       .  A
N2555      N2556   1.324       .  A
N2555      N2557   1.310       .  A
N2555     Mn2562   2.238       .  S
N2556      C2565   1.367       .  A
N2557      N2558   1.317       .  A
N2557     Mn2561   2.165       .  S
N2558      C2565   1.349       .  A
N2559      N2560   1.317       .  A
N2559     Mn2562   2.157       .  S
N2560      C2564   1.342       .  A
Mn2561    Cl2563   2.582       .  S
Mn2562    Cl2563   2.453       .  S
C2564      C2654   1.474       .  S
N2566      N2567   1.336       .  A
N2566      N2572   1.306       .  A
N2566     Mn2595   2.261       .  S
N2567      C2574   1.369       .  A
N2568      N2570   1.318       .  A
N2568      N2569   1.330       .  A
N2568     Mn2584   2.276       .  S
N2569      C2575   1.359       .  A
N2570      N2571   1.333       .  A
N2570     Mn2595   2.250       .  S
N2571      C2575   1.366       .  A
N2572      N2573   1.301       .  A
N2572     Mn2584   2.103       .  S
N2573      C2574   1.323       .  A
C2575      C2665   1.517       .  S
N2576      N2582   1.307       .  A
N2576      N2577   1.325       .  A
N2576     Mn2606   2.238       .  S
N2577      C2585   1.363       .  A
N2578      N2579   1.318       .  A
N2578      N2580   1.313       .  A
N2578     Mn2584   2.207       .  S
N2579      C2586   1.346       .  A
N2580      N2581   1.331       .  A
N2580     Mn2606   2.193       .  S
N2581      C2586   1.355       .  A
N2582      N2583   1.307       .  A
N2582     Mn2584   2.081       .  S
N2583      C2585   1.333       .  A
Mn2584    Cl2608   2.467       .  S
N2587      N2588   1.319       .  A
N2587      N2593   1.325       .  A
N2587     Mn2595   2.239       .  S
N2588      C2596   1.355       .  A
N2589      N2591   1.327       .  A
N2589      N2590   1.313       .  A
N2589     Mn2607   2.203       .  S
N2590      C2597   1.344       .  A
N2591      N2592   1.322       .  A
N2591     Mn2595   2.239       .  S
N2592      C2597   1.355       .  A
N2593      N2594   1.324       .  A
N2593     Mn2607   2.167       .  S
N2594      C2596   1.342       .  A
Mn2595    Cl2608   2.586       .  S
C2596      C2790   1.460       .  S
N2598      N2599   1.328       .  A
N2598      N2604   1.309       .  A
N2598     Mn2606   2.216       .  S
N2599      C2609   1.361       .  A
N2600      N2601   1.335       .  A
N2600      N2602   1.317       .  A
N2600     Mn2607   2.273       .  S
N2601      C2610   1.368       .  A
N2602      N2603   1.311       .  A
N2602     Mn2606   2.167       .  S
N2603      C2610   1.341       .  A
N2604      N2605   1.325       .  A
N2604     Mn2607   2.211       .  S
N2605      C2609   1.353       .  A
Mn2606    Cl2608   2.581       .  S
Mn2607    Cl2608   2.490       .  S
C2610      C2866   1.477       .  S
N2611      N2612   1.334       .  A
N2611      N2617   1.303       .  A
N2611     Mn2640   2.270       .  S
N2612      C2619   1.374       .  A
N2613      N2615   1.317       .  A
N2613      N2614   1.326       .  A
N2613     Mn2629   2.248       .  S
N2614      C2620   1.354       .  A
N2615      N2616   1.328       .  A
N2615     Mn2640   2.228       .  S
N2616      C2620   1.362       .  A
N2617      N2618   1.299       .  A
N2617     Mn2629   2.085       .  S
N2618      C2619   1.316       .  A
N2621      N2627   1.307       .  A
N2621      N2622   1.325       .  A
N2621     Mn2651   2.241       .  S
N2622      C2630   1.364       .  A
N2623      N2624   1.320       .  A
N2623      N2625   1.313       .  A
N2623     Mn2629   2.186       .  S
N2624      C2631   1.340       .  A
N2625      N2626   1.325       .  A
N2625     Mn2651   2.198       .  S
N2626      C2631   1.355       .  A
N2627      N2628   1.306       .  A
N2627     Mn2629   2.081       .  S
N2628      C2630   1.333       .  A
Mn2629    Cl2653   2.449       .  S
C2630      C2675   1.434       .  S
N2632      N2633   1.320       .  A
N2632      N2638   1.322       .  A
N2632     Mn2640   2.237       .  S
N2633      C2641   1.357       .  A
N2634      N2636   1.323       .  A
N2634      N2635   1.313       .  A
N2634     Mn2652   2.202       .  S
N2635      C2642   1.344       .  A
N2636      N2637   1.321       .  A
N2636     Mn2640   2.212       .  S
N2637      C2642   1.354       .  A
N2638      N2639   1.322       .  A
N2638     Mn2652   2.145       .  S
N2639      C2641   1.341       .  A
Mn2640    Cl2653   2.591       .  S
C2641      C2835   1.452       .  S
C2642      C2687   1.444       .  S
N2643      N2644   1.329       .  A
N2643      N2649   1.308       .  A
N2643     Mn2651   2.228       .  S
N2644      C2654   1.364       .  A
N2645      N2646   1.337       .  A
N2645      N2647   1.317       .  A
N2645     Mn2652   2.281       .  S
N2646      C2655   1.370       .  A
N2647      N2648   1.311       .  A
N2647     Mn2651   2.167       .  S
N2648      C2655   1.341       .  A
N2649      N2650   1.318       .  A
N2649     Mn2652   2.165       .  S
N2650      C2654   1.343       .  A
Mn2651    Cl2653   2.571       .  S
Mn2652    Cl2653   2.481       .  S
C2655      C2776   1.481       .  S
N2656      N2657   1.335       .  A
N2656      N2662   1.306       .  A
N2656     Mn2685   2.281       .  S
N2657      C2664   1.372       .  A
N2658      N2660   1.319       .  A
N2658      N2659   1.330       .  A
N2658     Mn2674   2.286       .  S
N2659      C2665   1.359       .  A
N2660      N2661   1.333       .  A
N2660     Mn2685   2.239       .  S
N2661      C2665   1.365       .  A
N2662      N2663   1.303       .  A
N2662     Mn2674   2.113       .  S
N2663      C2664   1.320       .  A
N2666      N2672   1.307       .  A
N2666      N2667   1.323       .  A
N2666     Mn2696   2.231       .  S
N2667      C2675   1.361       .  A
N2668      N2669   1.317       .  A
N2668      N2670   1.313       .  A
N2668     Mn2674   2.205       .  S
N2669      C2676   1.343       .  A
N2670      N2671   1.334       .  A
N2670     Mn2696   2.206       .  S
N2671      C2676   1.358       .  A
N2672      N2673   1.309       .  A
N2672     Mn2674   2.085       .  S
N2673      C2675   1.336       .  A
Mn2674    Cl2698   2.444       .  S
N2677      N2678   1.332       .  A
N2677      N2683   1.324       .  A
N2677     Mn2685   2.275       .  S
N2678      C2686   1.363       .  A
N2679      N2681   1.324       .  A
N2679      N2680   1.316       .  A
N2680      C2687   1.347       .  A
N2681      N2682   1.319       .  A
N2682      C2687   1.353       .  A
N2683      N2684   1.316       .  A
N2683     Mn2697   2.151       .  S
N2684      C2686   1.333       .  A
Mn2685    Cl2698   2.604       .  S
N2688      N2689   1.328       .  A
N2688      N2694   1.309       .  A
N2688     Mn2696   2.225       .  S
N2689      C2699   1.361       .  A
N2690      N2691   1.326       .  A
N2690      N2692   1.312       .  A
N2690     Mn2697   2.245       .  S
N2691      C2700   1.367       .  A
N2692      N2693   1.317       .  A
N2692     Mn2696   2.176       .  S
N2693      C2700   1.350       .  A
N2694     Mn2697   2.198       .  S
Mn2696    Cl2698   2.568       .  S
Mn2697    Cl2698   2.474       .  S
C2700      C2880   1.458       .  S
N2701      N2702   1.320       .  A
N2701     Mn2730   2.231       .  S
N2702      C2709   1.354       .  A
N2703      N2705   1.308       .  A
N2703      N2704   1.324       .  A
N2703     Mn2719   2.205       .  S
N2704      C2710   1.353       .  A
N2705      N2706   1.328       .  A
N2706      C2710   1.359       .  A
N2707     Mn2719   2.229   1_545  S
N2708      C2709   1.358       .  A
C2710      C2879   1.491       .  S
N2711      N2717   1.325       .  A
N2711      N2712   1.322       .  A
N2711     Mn2741   2.252       .  S
N2712      C2720   1.359       .  A
N2713      N2714   1.326       .  A
N2713      N2715   1.323       .  A
N2713     Mn2719   2.158       .  S
N2714      C2721   1.341       .  A
N2715      N2716   1.317       .  A
N2715     Mn2741   2.213       .  S
N2716      C2721   1.350       .  A
N2717      N2718   1.311       .  A
N2717     Mn2719   2.164       .  S
N2718      C2720   1.338       .  A
Mn2719    Cl2743   2.518   1_565  S
C2720      C2777   1.444       .  S
N2722      N2723   1.327       .  A
N2722      N2728   1.318       .  A
N2722     Mn2730   2.245       .  S
N2723      C2731   1.361       .  A
N2724      N2726   1.308       .  A
N2724      N2725   1.309       .  A
N2724     Mn2742   2.098       .  S
N2725      C2732   1.336       .  A
N2726      N2727   1.322       .  A
N2726     Mn2730   2.213       .  S
N2727      C2732   1.357       .  A
N2728      N2729   1.321       .  A
N2728     Mn2742   2.171       .  S
N2729      C2731   1.339       .  A
C2732      C2765   1.440       .  S
N2733      N2734   1.331       .  A
N2733      N2739   1.321       .  A
N2734      C2744   1.367       .  A
N2735      N2736   1.300   1_565  A
N2735      N2737   1.306       .  A
N2736      C2745   1.324   1_545  A
N2737      N2738   1.334       .  A
N2737     Mn2741   2.239       .  S
N2738      C2745   1.366       .  A
N2739      N2740   1.326       .  A
N2739     Mn2742   2.242       .  S
N2740      C2744   1.353       .  A
Mn2741    Cl2743   2.572   1_565  S
C2744      C2800   1.504       .  S
N2746      N2747   1.321       .  A
N2746      N2752   1.315       .  A
N2746     Mn2775   2.206       .  S
N2747      C2754   1.355       .  A
N2748      N2750   1.309       .  A
N2748      N2749   1.331       .  A
N2748     Mn2764   2.230       .  S
N2749      C2755   1.358       .  A
N2750      N2751   1.328       .  A
N2750     Mn2775   2.222       .  S
N2751      C2755   1.359       .  A
N2752      N2753   1.327       .  A
N2752     Mn2764   2.238       .  S
N2753      C2754   1.364       .  A
C2755      C2834   1.507       .  S
N2756      N2762   1.324       .  A
N2756      N2757   1.316       .  A
N2756     Mn2786   2.225       .  S
N2757      C2765   1.354       .  A
N2758      N2759   1.319       .  A
N2758      N2760   1.321       .  A
N2758     Mn2764   2.175       .  S
N2759      C2766   1.342       .  A
N2760      N2761   1.325       .  A
N2760     Mn2786   2.221       .  S
N2761      C2766   1.352       .  A
N2762      N2763   1.315       .  A
N2762     Mn2764   2.177       .  S
N2763      C2765   1.342       .  A
Mn2764    Cl2788   2.508       .  S
N2767      N2768   1.336       .  A
N2767      N2773   1.316       .  A
N2767     Mn2775   2.223       .  S
N2768      C2776   1.361       .  A
N2769      N2771   1.308       .  A
N2769      N2770   1.314       .  A
N2769     Mn2787   2.098       .  S
N2770      C2777   1.339       .  A
N2771      N2772   1.319       .  A
N2771     Mn2775   2.226       .  S
N2772      C2777   1.357       .  A
N2773      N2774   1.313       .  A
N2773     Mn2787   2.198       .  S
N2774      C2776   1.342       .  A
Mn2775    Cl2788   2.550       .  S
N2778      N2779   1.325       .  A
N2778      N2784   1.319       .  A
N2778     Mn2786   2.205       .  S
N2779      C2789   1.356       .  A
N2780      N2781   1.302       .  A
N2780      N2782   1.306       .  A
N2780     Mn2787   2.103       .  S
N2781      C2790   1.321       .  A
N2782      N2783   1.334       .  A
N2782     Mn2786   2.258       .  S
N2783      C2790   1.370       .  A
N2784      N2785   1.328       .  A
N2784     Mn2787   2.281       .  S
N2785      C2789   1.361       .  A
Mn2786    Cl2788   2.579       .  S
Mn2787    Cl2788   2.476       .  S
C2789      C2845   1.495       .  S
N2791      N2792   1.322       .  A
N2791      N2797   1.317       .  A
N2791     Mn2820   2.219       .  S
N2792      C2799   1.355       .  A
N2793      N2795   1.308       .  A
N2793      N2794   1.327       .  A
N2793     Mn2809   2.201       .  S
N2794      C2800   1.352       .  A
N2795      N2796   1.331       .  A
N2795     Mn2820   2.239       .  S
N2796      C2800   1.364       .  A
N2797      N2798   1.329       .  A
N2797     Mn2809   2.249       .  S
N2798      C2799   1.367       .  A
N2801      N2807   1.326       .  A
N2801      N2802   1.319       .  A
N2801     Mn2831   2.245       .  S
N2802      C2810   1.357       .  A
N2803      N2804   1.326       .  A
N2803      N2805   1.323       .  A
N2804      C2811   1.341       .  A
N2805      N2806   1.319       .  A
N2805     Mn2831   2.219       .  S
N2806      C2811   1.352       .  A
N2812      N2813   1.328       .  A
N2812      N2818   1.318       .  A
N2812     Mn2820   2.238       .  S
N2813      C2821   1.362       .  A
N2814      N2815   1.310       .  A
N2814     Mn2832   2.084       .  S
N2816      N2817   1.318       .  A
N2816     Mn2820   2.209       .  S
N2817      C2822   1.354       .  A
N2818      N2819   1.320       .  A
N2819      C2821   1.336       .  A
N2823      N2824   1.333       .  A
N2823      N2829   1.321       .  A
N2823     Mn2831   2.265       .  S
N2824      C2834   1.366       .  A
N2825      N2826   1.298       .  A
N2825      N2827   1.302       .  A
N2825     Mn2832   2.071       .  S
N2826      C2835   1.318       .  A
N2827      N2828   1.335       .  A
N2827     Mn2831   2.258       .  S
N2828      C2835   1.373       .  A
N2829      N2830   1.325       .  A
N2829     Mn2832   2.251       .  S
N2830      C2834   1.355       .  A
Mn2831    Cl2833   2.572       .  S
Mn2832    Cl2833   2.489       .  S
N2836      N2837   1.318       .  A
N2836      N2842   1.318       .  A
N2836     Mn2865   2.213       .  S
N2837      C2844   1.353       .  A
N2838      N2840   1.309       .  A
N2838      N2839   1.328       .  A
N2838     Mn2854   2.232       .  S
N2839      C2845   1.359       .  A
N2840      N2841   1.326       .  A
N2840     Mn2865   2.197       .  S
N2841      C2845   1.355       .  A
N2842      N2843   1.324       .  A
N2842     Mn2854   2.207       .  S
N2843      C2844   1.354       .  A
N2846      N2847   1.318       .  A
N2846     Mn2876   2.228       .  S
N2847      C2855   1.355       .  A
N2848      N2849   1.320       .  A
N2848      N2850   1.322       .  A
N2849      C2856   1.343       .  A
N2850      N2851   1.323       .  A
N2850     Mn2876   2.218       .  S
N2851      C2856   1.351       .  A
N2852      N2853   1.310       .  A
N2852     Mn2854   2.159       .  S
N2857      N2858   1.334       .  A
N2857      N2863   1.316       .  A
N2857     Mn2865   2.224       .  S
N2858      C2866   1.359       .  A
N2859      N2860   1.310       .  A
N2859     Mn2877   2.097       .  S
N2861      N2862   1.323       .  A
N2861     Mn2865   2.228       .  S
N2862      C2867   1.359       .  A
N2863      N2864   1.314       .  A
N2864      C2866   1.342       .  A
N2868      N2869   1.324       .  A
N2868      N2874   1.319       .  A
N2868     Mn2876   2.214       .  S
N2869      C2879   1.357       .  A
N2870      N2871   1.302       .  A
N2870      N2872   1.308       .  A
N2870     Mn2877   2.110       .  S
N2871      C2880   1.326       .  A
N2872      N2873   1.334       .  A
N2872     Mn2876   2.243       .  S
N2873      C2880   1.366       .  A
N2874      N2875   1.327       .  A
N2874     Mn2877   2.262       .  S
N2875      C2879   1.358       .  A
Mn2876    Cl2878   2.572       .  S
Mn2877    Cl2878   2.490       .  S
