geometry optimzed in LAMMPS
_audit_creation_date              2020-11-30 
_audit_creation_method            'lammps2cif' 
_symmetry_space_group_name_H-M    'P1' 
_symmetry_Int_Tables_number       1 
_symmetry_cell_setting            triclinic 
loop_ 
_symmetry_equiv_pos_as_xyz 
  x,y,z 
_cell_length_a                    52.2768511 
_cell_length_b                    52.32437956213609 
_cell_length_c                    52.34812788693544 
_cell_angle_alpha                 90.00819790490937 
_cell_angle_beta                  89.97045115278056 
_cell_angle_gamma                 90.00692459873439 
loop_ 
_atom_site_label 
_atom_site_type_symbol 
_atom_site_fract_x 
_atom_site_fract_y 
_atom_site_fract_z 
_atom_site_charge 
Zr1        Zr  0.43276710  0.16401832  0.22808343     2.17500
O2          O  0.43314673  0.21013839  0.23469340    -0.51800
O3          O  0.39625577  0.15752586  0.25627026    -0.75100
O4          O  0.39831595  0.18433966  0.20455559    -0.81800
O5          O  0.49151095  0.16025503  0.27048307    -0.83600
O6          O  0.38933959  0.16164107  0.16859699    -0.79200
O7          O  0.45512574  0.18316927  0.26433095    -0.90800
O8          O  0.38861651  0.11491518  0.25796810    -0.76800
O9          O  0.40865556  0.12815244  0.21386944    -0.86300
O10         O  0.44783939  0.12856692  0.25223789    -0.86000
O11         O  0.44113622  0.16086253  0.18289385    -0.72700
O12         O  0.47750162  0.16071761  0.21818433    -0.84900
Zr13       Zr  0.47734046  0.08470795  0.18335859     2.26400
Zr14       Zr  0.41725969  0.12394205  0.16918523     2.06300
Zr15       Zr  0.49212348  0.12432812  0.24165375     2.10000
Zr16       Zr  0.42406112  0.09282128  0.23776599     1.78800
O17         O  0.53534708  0.14092555  0.24689444    -0.93700
O18         O  0.38640170  0.06783133  0.22661908    -0.41500
O19         O  0.46870907  0.08769270  0.22826903    -0.78100
O20         O  0.43235425  0.08775267  0.19306280    -0.96800
O21         O  0.46172693  0.12011965  0.15948875    -0.90100
O22         O  0.50126101  0.12075875  0.19709245    -0.93000
C23         C  0.38271357  0.13817669  0.26301638     1.00800
C24         C  0.47639922  0.17878750  0.27590121     1.13700
C25         C  0.38587343  0.18078427  0.18370515     1.04500
O26         O  0.37385091  0.10712376  0.17078617    -0.95100
O27         O  0.41820540  0.08670827  0.14063948    -0.90900
O28         O  0.45511859  0.06495922  0.14827169    -0.84000
C29         C  0.43394110  0.06820021  0.13638721     1.11100
O30         O  0.48943628  0.20250249  0.17546109    -0.97100
Zr31       Zr  0.48554038  0.15610702  0.17336163     1.88900
O32         O  0.50467350  0.09118367  0.14620833    -0.73700
O33         O  0.41355055  0.13750619  0.12482801    -0.53000
O34         O  0.47146985  0.17628955  0.13383675    -0.97700
O35         O  0.52952401  0.17024702  0.17972108    -0.54900
O36         O  0.50786256  0.13390161  0.13927667    -0.74300
C37         C  0.51231730  0.11055522  0.13315504     0.98100
O38         O  0.47735308  0.03806248  0.18561937    -0.63100
O39         O  0.49170778  0.10503619  0.28397844    -0.57900
O40         O  0.51665320  0.06766225  0.20213183    -0.94600
O41         O  0.52265529  0.08955520  0.23910026    -0.93000
O42         O  0.42884493  0.08449727  0.28330506    -0.93300
O43         O  0.42945556  0.04739872  0.24624645    -0.92100
C44         C  0.52869624  0.07191270  0.22315289     1.16900
H45         H  0.44539853  0.13132241  0.27033406     0.32900
H46         H  0.42366126  0.07239175  0.18764844     0.43700
H47         H  0.51929155  0.11833576  0.19401589     0.37300
H48         H  0.43557765  0.17608396  0.17408460     0.33700
H49         H  0.37669968  0.06623671  0.24279449     0.25500
H50         H  0.39513350  0.13570565  0.12079913     0.31500
H51         H  0.46470168  0.16208791  0.12332867     0.37400
H52         H  0.41302519  0.07529830  0.28819836     0.31800
H53         H  0.49192542  0.08637407  0.28085151     0.30700
H54         H  0.54429474  0.13665600  0.23077698     0.32400
H55         H  0.54035213  0.15560082  0.17459281     0.31400
H56         H  0.43933004  0.04093052  0.23145662     0.35400
H57         H  0.48234041  0.03386137  0.20337353     0.28100
H58         H  0.41570913  0.21453321  0.24065131     0.32300
H59         H  0.50092416  0.20734023  0.16120911     0.35200
H60         H  0.50881150  0.10889358  0.29112375     0.27800
H61         H  0.45910107  0.03305566  0.18481623     0.40700
H62         H  0.36536803  0.11681920  0.18465478     0.30700
H63         H  0.37593460  0.07945860  0.21599763     0.38300
H64         H  0.53149846  0.17133698  0.19849707     0.30200
H65         H  0.41657457  0.15618052  0.12512770     0.30200
H66         H  0.43447963  0.21765851  0.21738831     0.30500
Zr67       Zr  0.08574832  0.18291456  0.47693271     2.17500
O68         O  0.03943096  0.18365344  0.48238037    -0.51800
O69         O  0.09243118  0.14610924  0.50447840    -0.75100
O70         O  0.06584116  0.14846592  0.45350210    -0.81800
O71         O  0.09219440  0.23800572  0.52317175    -0.83600
O72         O  0.08709719  0.14094692  0.41637799    -0.79200
O73         O  0.06830333  0.20260667  0.51535639    -0.90800
O74         O  0.13524238  0.13999575  0.50761834    -0.76800
O75         O  0.12110619  0.15929091  0.46068879    -0.86300
O76         O  0.12191979  0.19693467  0.50058126    -0.86000
O77         O  0.08763979  0.19306612  0.43213191    -0.72700
O78         O  0.08848299  0.22793945  0.46859011    -0.84900
Zr79       Zr  0.16395288  0.22907366  0.43137032     2.26400
Zr80       Zr  0.12406784  0.16981890  0.41627126     2.06300
Zr81       Zr  0.12556713  0.24155440  0.49145496     2.10000
Zr82       Zr  0.15715308  0.17373074  0.48421080     1.78800
O83         O  0.10550359  0.28345342  0.49388324    -0.93700
O84         O  0.17879760  0.13418071  0.47255175    -0.41500
O85         O  0.16185322  0.21860057  0.47598148    -0.78100
O86         O  0.16097040  0.18387582  0.43972043    -0.96800
O87         O  0.12778924  0.21453695  0.40801704    -0.90100
O88         O  0.12838876  0.25250005  0.44725784    -0.93000
C89         C  0.11201021  0.13357669  0.51236410     1.00800
C90         C  0.07388039  0.22259637  0.52851614     1.13700
C91         C  0.06877204  0.13660477  0.43226221     1.04500
O92         O  0.14270172  0.12724834  0.41396109    -0.95100
O93         O  0.16027158  0.17150120  0.38653977    -0.90900
O94         O  0.18294373  0.20760278  0.39514872    -0.84000
C95         C  0.17908638  0.18692200  0.38255511     1.11100
O96         O  0.04630849  0.24464960  0.42800809    -0.97100
Zr97       Zr  0.09228799  0.23780239  0.42395582     1.88900
O98         O  0.15646954  0.25755713  0.39518169    -0.73700
O99         O  0.10709197  0.16920736  0.37293900    -0.53000
O100        O  0.06989658  0.22358155  0.38567983    -0.97700
O101        O  0.08104684  0.28264925  0.43009844    -0.54900
O102        O  0.11357176  0.25951075  0.38890648    -0.74300
C103        C  0.13668708  0.26460091  0.38236811     0.98100
O104        O  0.21070245  0.22997897  0.43185567    -0.63100
O105        O  0.14557510  0.24631965  0.53322610    -0.57900
O106        O  0.18155340  0.26713583  0.45199557    -0.94600
O107        O  0.16119084  0.27088577  0.49016139    -0.93000
O108        O  0.16999573  0.18252374  0.52806504    -0.93300
O109        O  0.20346769  0.17475913  0.48906730    -0.92100
C110        C  0.17830989  0.27769025  0.47397034     1.16900
H111        H  0.11982078  0.19374526  0.51863715     0.32900
H112        H  0.17612758  0.17531202  0.43354421     0.43700
H113        H  0.13085005  0.27064481  0.44498522     0.37300
H114        H  0.07217372  0.18760720  0.42370688     0.33700
H115        H  0.18142228  0.12506611  0.48892259     0.25500
H116        H  0.10559806  0.15085947  0.36855276     0.31500
H117        H  0.06804827  0.23909718  0.37501454     0.37400
H118        H  0.17173782  0.16547875  0.53609040     0.31800
H119        H  0.13659350  0.26089422  0.54130094     0.30700
H120        H  0.11000955  0.28995597  0.51106211     0.32400
H121        H  0.09610998  0.29256544  0.42434068     0.31400
H122        H  0.20875272  0.19113851  0.48120304     0.35400
H123        H  0.21548744  0.23330172  0.44985074     0.28100
H124        H  0.03452908  0.16600915  0.48716975     0.32300
H125        H  0.04159154  0.25632120  0.41388176     0.35200
H126        H  0.13999690  0.23119783  0.54313520     0.27800
H127        H  0.21615723  0.21206824  0.42908928     0.40700
H128        H  0.13206187  0.11664043  0.42547089     0.30700
H129        H  0.16561752  0.12400681  0.46356018     0.38300
H130        H  0.08062563  0.28501052  0.44884969     0.30200
H131        H  0.08920713  0.17518036  0.37464727     0.30200
H132        H  0.03245662  0.18612281  0.46497140     0.30500
Zr133      Zr  0.22623201  0.43141033  0.16322459     2.17500
O134        O  0.22858736  0.43064103  0.20976422    -0.51800
O135        O  0.25482716  0.39548411  0.15536682    -0.75100
O136        O  0.20319287  0.39551475  0.18139372    -0.81800
O137        O  0.26960745  0.48917293  0.16228939    -0.83600
O138        O  0.16706246  0.38792850  0.15835629    -0.79200
O139        O  0.26394622  0.45112371  0.18250901    -0.90800
O140        O  0.25819890  0.39030210  0.11248552    -0.76800
O141        O  0.21195645  0.40891273  0.12639642    -0.86300
O142        O  0.25053305  0.44800372  0.12854166    -0.86000
O143        O  0.18109675  0.44009248  0.15995389    -0.72700
O144        O  0.21655722  0.47632294  0.16202296    -0.84900
Zr145      Zr  0.18191317  0.47923335  0.08572738     2.26400
Zr146      Zr  0.16727400  0.41785202  0.12218119     2.06300
Zr147      Zr  0.24029968  0.49259354  0.12650285     2.10000
Zr148      Zr  0.23612232  0.42561496  0.09185394     1.78800
O149        O  0.24368483  0.53376670  0.14795563    -0.93700
O150        O  0.22372047  0.38750999  0.06812616    -0.41500
O151        O  0.22683525  0.47047887  0.08897013    -0.78100
O152        O  0.19151477  0.43428155  0.08684964    -0.96800
O153        O  0.15755729  0.46245517  0.12029304    -0.90100
O154        O  0.19572836  0.50163866  0.12274005    -0.93000
C155        C  0.26271291  0.38329587  0.13554787     1.00800
C156        C  0.27552195  0.47262669  0.17944536     1.13700
C157        C  0.18223353  0.38341885  0.17724917     1.04500
O158        O  0.16697284  0.37488231  0.10431671    -0.95100
O159        O  0.13970856  0.41969991  0.08422475    -0.90900
O160        O  0.14729388  0.45752865  0.06419782    -0.84000
C161        C  0.13569008  0.43601467  0.06619768     1.11100
O162        O  0.17352087  0.48782207  0.20370102    -0.97100
Zr163      Zr  0.17168367  0.48468542  0.15725411     1.88900
O164        O  0.14537278  0.50720179  0.09300578    -0.73700
O165        O  0.12289573  0.41579632  0.13612480    -0.53000
O166        O  0.13283477  0.46916624  0.17784172    -0.97700
O167        O  0.17648781  0.52872022  0.17192610    -0.54900
O168        O  0.13796730  0.50807449  0.13571794    -0.74300
C169        C  0.13224568  0.51401511  0.11263718     0.98100
O170        O  0.18543447  0.48219218  0.03925344    -0.63100
O171        O  0.28194600  0.49635019  0.10593795    -0.57900
O172        O  0.20081498  0.51894286  0.07062576    -0.94600
O173        O  0.23692157  0.52568648  0.09385337    -0.93000
O174        O  0.28071586  0.43336773  0.08067515    -0.93300
O175        O  0.24229105  0.43075403  0.04603662    -0.92100
C176        C  0.22105556  0.53177586  0.07606901     1.16900
H177        H  0.26863735  0.44523270  0.13113917     0.32900
H178        H  0.18628595  0.42625996  0.07107856     0.43700
H179        H  0.19272875  0.51974412  0.12105325     0.37300
H180        H  0.17224737  0.43377035  0.17485014     0.33700
H181        H  0.23996805  0.38054906  0.06132475     0.25500
H182        H  0.11820540  0.39753796  0.13445840     0.31500
H183        H  0.11933661  0.47051066  0.16465505     0.37400
H184        H  0.28990735  0.41747949  0.08525343     0.31800
H185        H  0.28992405  0.51150657  0.11398077     0.30700
H186        H  0.25998531  0.54113309  0.14173572     0.32400
H187        H  0.17299563  0.53962845  0.15688285     0.31400
H188        H  0.22502977  0.43466775  0.03931327     0.35400
H189        H  0.20375777  0.48559038  0.03584054     0.28100
H190        H  0.23561516  0.41363851  0.21422299     0.32300
H191        H  0.15918379  0.49915793  0.20867049     0.35200
H192        H  0.29201317  0.48170370  0.11241769     0.27800
H193        H  0.18294227  0.46456127  0.03284844     0.40700
H194        H  0.16985738  0.37730811  0.08578158     0.30700
H195        H  0.21847053  0.37508376  0.08139009     0.38300
H196        H  0.19504818  0.53074049  0.17509555     0.30200
H197        H  0.12353978  0.41888856  0.15476991     0.30200
H198        H  0.21061779  0.43027249  0.21575901     0.30500
Zr199      Zr  0.97636486  0.41442241  0.81454756     2.17500
O200        O  0.97884736  0.46089780  0.81223759    -0.51800
O201        O  0.00455671  0.40795037  0.85083159    -0.75100
O202        O  0.95381169  0.43338281  0.85017356    -0.81800
O203        O  0.02167473  0.41071689  0.75832727    -0.83600
O204        O  0.91753579  0.41069074  0.85826431    -0.79200
O205        O  0.01486767  0.43255987  0.79521273    -0.90800
O206        O  0.00770782  0.36520658  0.85737934    -0.76800
O207        O  0.96131328  0.37838801  0.83793729    -0.86300
O208        O  0.00070990  0.37910864  0.79959183    -0.86000
O209        O  0.93128063  0.41136126  0.80555920    -0.72700
O210        O  0.96734995  0.41187800  0.76972006    -0.84900
Zr211      Zr  0.93257173  0.33556159  0.76871453     2.26400
Zr212      Zr  0.91670293  0.37428309  0.82852224     2.06300
Zr213      Zr  0.99127349  0.37591136  0.75504218     2.10000
Zr214      Zr  0.98573414  0.34324699  0.82280373     1.78800
O215        O  0.99464144  0.39710286  0.71376872    -0.93700
O216        O  0.97397001  0.31941726  0.86101536    -0.41500
O217        O  0.97740464  0.33895214  0.77794446    -0.78100
O218        O  0.94119903  0.33832855  0.81377197    -0.96800
O219        O  0.90790569  0.37071521  0.78385924    -0.90100
O220        O  0.94678256  0.37195475  0.74535939    -0.93000
C221        C  0.01233657  0.38850153  0.86361115     1.00800
C222        C  0.02727883  0.42841184  0.77437339     1.13700
C223        C  0.93292252  0.42951393  0.86247153     1.04500
O224        O  0.91378697  0.35576729  0.87105685    -0.95100
O225        O  0.88877181  0.33648424  0.82748428    -0.90900
O226        O  0.89779831  0.31459536  0.79104389    -0.84000
C227        C  0.88551438  0.31750241  0.81208899     1.11100
O228        O  0.92501194  0.45334638  0.75616074    -0.97100
Zr229      Zr  0.92259316  0.40704827  0.76096448     1.88900
O230        O  0.89633597  0.34187235  0.74054880    -0.73700
O231        O  0.87306830  0.39072329  0.82923602    -0.53000
O232        O  0.88303699  0.42690614  0.77566277    -0.97700
O233        O  0.92804158  0.42180007  0.71710209    -0.54900
O234        O  0.88952519  0.38459564  0.73757268    -0.74300
C235        C  0.88351527  0.36130685  0.73282807     0.98100
O236        O  0.93514071  0.28895748  0.76589117    -0.63100
O237        O  0.03344266  0.35631523  0.75160765    -0.57900
O238        O  0.95248164  0.31902051  0.72996149    -0.94600
O239        O  0.98883467  0.34196114  0.72356740    -0.93000
O240        O  0.03071174  0.33262391  0.81708270    -0.93300
O241        O  0.99188591  0.29745235  0.81717724    -0.92100
C242        C  0.97324438  0.32389663  0.71771961     1.16900
H243        H  0.01879080  0.38165388  0.80259310     0.32900
H244        H  0.93575924  0.32288014  0.82228420     0.43700
H245        H  0.94402629  0.36982970  0.72720152     0.37300
H246        H  0.92253116  0.42652466  0.81141977     0.33700
H247        H  0.99049354  0.31433907  0.86873872     0.25500
H248        H  0.86683967  0.38702087  0.84671592     0.31500
H249        H  0.87027015  0.41292989  0.77587105     0.37400
H250        H  0.03530515  0.32268762  0.83251286     0.31800
H251        H  0.04066754  0.36318797  0.73552521     0.30700
H252        H  0.01262899  0.39451444  0.70843109     0.32400
H253        H  0.92074048  0.40817296  0.70620450     0.31400
H254        H  0.97475433  0.29085482  0.81253727     0.35400
H255        H  0.95354491  0.28507572  0.76363193     0.28100
H256        H  0.98803519  0.46614824  0.82792539     0.32300
H257        H  0.90931351  0.45838161  0.74685013     0.35200
H258        H  0.04380691  0.36435117  0.76524453     0.27800
H259        H  0.93137693  0.28244782  0.78324514     0.40700
H260        H  0.92894083  0.36243363  0.88022677     0.30700
H261        H  0.96702405  0.33245044  0.87284042     0.38300
H262        H  0.94670062  0.42089176  0.71401606     0.30200
H263        H  0.87489799  0.40955015  0.82872408     0.30200
H264        H  0.96110556  0.46706463  0.81466434     0.30500
Zr265      Zr  0.77213815  0.93095279  0.33398790     2.17500
O266        O  0.76755437  0.93137858  0.28761143    -0.51800
O267        O  0.74417628  0.89427018  0.34145698    -0.75100
O268        O  0.79489840  0.89574750  0.31435724    -0.81800
O269        O  0.72737665  0.98770459  0.33880068    -0.83600
O270        O  0.83036647  0.88635588  0.33766810    -0.79200
O271        O  0.73441546  0.95168191  0.31561409    -0.90800
O272        O  0.74154294  0.88801351  0.38425681    -0.76800
O273        O  0.78711835  0.90750595  0.36998819    -0.86300
O274        O  0.74830296  0.94615883  0.36957096    -0.86000
O275        O  0.81734372  0.93994879  0.33667487    -0.72700
O276        O  0.78193474  0.97578934  0.33650735    -0.84900
Zr277      Zr  0.81749240  0.97628227  0.41258701     2.26400
Zr278      Zr  0.83187007  0.91657747  0.37339876     2.06300
Zr279      Zr  0.75852579  0.99058028  0.37282058     2.10000
Zr280      Zr  0.76336823  0.92299829  0.40545965     1.78800
O281        O  0.75596807  0.03212038  0.35203837    -0.93700
O282        O  0.77488579  0.88506135  0.42985489    -0.41500
O283        O  0.77256111  0.96764017  0.40956492    -0.78100
O284        O  0.80809455  0.93135052  0.40980913    -0.96800
O285        O  0.84154095  0.96101949  0.37709833    -0.90100
O286        O  0.80302963  0.99995529  0.37660309    -0.93000
C287        C  0.73681004  0.88146315  0.36111335     1.00800
C288        C  0.72182587  0.97224930  0.32058387     1.13700
C289        C  0.81527972  0.88274593  0.31855606     1.04500
O290        O  0.83752469  0.87339653  0.38975558    -0.95100
O291        O  0.86020079  0.91692042  0.41059832    -0.90900
O292        O  0.85254475  0.95371324  0.43248249    -0.84000
C293        C  0.86443678  0.93251408  0.42916662     1.11100
O294        O  0.82548572  0.98799316  0.29481285    -0.97100
Zr295      Zr  0.82681059  0.98456016  0.34125256     1.88900
O296        O  0.85380633  0.00474128  0.40664432    -0.73700
O297        O  0.87498602  0.91849597  0.35586445    -0.53000
O298        O  0.86672061  0.97241066  0.32045666    -0.97700
O299        O  0.81960501  0.02863280  0.32779838    -0.54900
O300        O  0.85985082  0.00842649  0.36386330    -0.74300
C301        C  0.86614968  0.01312854  0.38713535     0.98100
O302        O  0.81356402  0.97755455  0.45906945    -0.63100
O303        O  0.71628210  0.99458830  0.39205455    -0.57900
O304        O  0.79879887  0.01545703  0.42924188    -0.94600
O305        O  0.76157283  0.02113344  0.40758683    -0.93000
O306        O  0.71882737  0.93149896  0.41625171    -0.93300
O307        O  0.75744902  0.92717531  0.45143256    -0.92100
C308        C  0.77770276  0.02733815  0.42503764     1.16900
H309        H  0.73016449  0.94348210  0.36719878     0.32900
H310        H  0.81364282  0.92270186  0.42513538     0.43700
H311        H  0.80585697  0.01805763  0.37897966     0.37300
H312        H  0.82599387  0.93405473  0.32147521     0.33700
H313        H  0.75836511  0.87777220  0.43557865     0.25500
H314        H  0.88364124  0.90315342  0.36277355     0.31500
H315        H  0.87911887  0.97011530  0.33455893     0.37400
H316        H  0.71079733  0.91441750  0.41762086     0.31800
H317        H  0.71894477  0.99095804  0.41042560     0.30700
H318        H  0.73857296  0.03844037  0.35605131     0.32400
H319        H  0.82329179  0.03935843  0.34293232     0.31400
H320        H  0.75633400  0.94581022  0.45452806     0.35400
H321        H  0.79514090  0.98042814  0.46243233     0.28100
H322        H  0.76018479  0.91452842  0.28311634     0.32300
H323        H  0.83827107  0.00119697  0.29024514     0.35200
H324        H  0.71231973  0.01307892  0.39133565     0.27800
H325        H  0.81640816  0.95974650  0.46479246     0.40700
H326        H  0.82011547  0.86595979  0.38977306     0.30700
H327        H  0.78122826  0.87278316  0.41693845     0.38300
H328        H  0.80087298  0.02994932  0.32541155     0.30200
H329        H  0.87297565  0.91492207  0.33740331     0.30200
H330        H  0.78521050  0.93101600  0.28075749     0.30500
Zr331      Zr  0.06567439  0.83673440  0.72789827     2.17500
O332        O  0.06393501  0.79053444  0.73398781    -0.51800
O333        O  0.10316611  0.84488169  0.75438850    -0.75100
O334        O  0.09971064  0.81525714  0.70529403    -0.81800
O335        O  0.00881005  0.84149865  0.77232963    -0.83600
O336        O  0.10896465  0.83724845  0.66898960    -0.79200
O337        O  0.04606704  0.81987789  0.76652757    -0.90800
O338        O  0.10902602  0.88779917  0.75560753    -0.76800
O339        O  0.08903140  0.87224275  0.71164734    -0.86300
O340        O  0.05040085  0.87286584  0.75081283    -0.86000
O341        O  0.05660226  0.83779950  0.68283292    -0.72700
O342        O  0.02069997  0.83871345  0.71868092    -0.84900
Zr343      Zr  0.01926971  0.91321212  0.68070226     2.26400
Zr344      Zr  0.07967645  0.87415742  0.66691204     2.06300
Zr345      Zr  0.00579686  0.87562057  0.74103026     2.10000
Zr346      Zr  0.07331413  0.90829932  0.73432600     1.78800
O347        O  0.96333713  0.85700373  0.74571954    -0.93700
O348        O  0.11056533  0.93282018  0.72086577    -0.41500
O349        O  0.02844263  0.91208466  0.72551437    -0.78100
O350        O  0.06433604  0.91106904  0.68971522    -0.96800
O351        O  0.03500282  0.87714843  0.65777644    -0.90100
O352        O  0.99614635  0.87737550  0.69644361    -0.93000
C353        C  0.11600027  0.86486545  0.76073595     1.00800
C354        C  0.02500590  0.82407682  0.77849690     1.13700
C355        C  0.11230055  0.81835066  0.68450222     1.04500
O356        O  0.12327724  0.88952083  0.66133468    -0.95100
O357        O  0.07896144  0.91157373  0.63836819    -0.90900
O358        O  0.04130654  0.93242773  0.64493079    -0.84000
C359        C  0.06295933  0.92978444  0.63367225     1.11100
O360        O  0.00858794  0.79532387  0.67964232    -0.97100
Zr361      Zr  0.01201676  0.84141708  0.67375466     1.88900
O362        O  0.99114839  0.90486160  0.64471019    -0.73700
O363        O  0.07823593  0.85554281  0.62431039    -0.53000
O364        O  0.02650434  0.81874081  0.63571708    -0.97700
O365        O  0.96777974  0.82748273  0.67895513    -0.54900
O366        O  0.98949725  0.86191774  0.63875805    -0.74300
C367        C  0.98417221  0.88493388  0.63216331     0.98100
O368        O  0.01798645  0.95989073  0.68212707    -0.63100
O369        O  0.00442229  0.89674144  0.78246215    -0.57900
O370        O  0.98036435  0.93082671  0.69975136    -0.94600
O371        O  0.97430483  0.90951140  0.73707910    -0.93000
O372        O  0.06436207  0.92031339  0.77841806    -0.93300
O373        O  0.07198669  0.95445628  0.74011285    -0.92100
C374        C  0.96822136  0.92683824  0.72077471     1.16900
H375        H  0.05327678  0.87101806  0.76895414     0.32900
H376        H  0.07272116  0.92639354  0.68376815     0.43700
H377        H  0.97801527  0.87931512  0.69356660     0.37300
H378        H  0.06233289  0.82228366  0.67467615     0.33700
H379        H  0.12044644  0.93583700  0.73671932     0.25500
H380        H  0.09578333  0.85781456  0.61755580     0.31500
H381        H  0.02791584  0.83202670  0.62232784     0.37400
H382        H  0.07700583  0.91080432  0.78879246     0.31800
H383        H  0.00544719  0.91522616  0.77854552     0.30700
H384        H  0.95981330  0.85747940  0.76429938     0.32400
H385        H  0.95737162  0.83930700  0.66848757     0.31400
H386        H  0.05715937  0.96013685  0.72982137     0.35400
H387        H  0.01532443  0.96421967  0.70035350     0.28100
H388        H  0.08133240  0.78533268  0.73936403     0.32300
H389        H  0.99827275  0.78903721  0.66507737     0.35200
H390        H  0.98670172  0.89412370  0.78861568     0.27800
H391        H  0.03574064  0.96558515  0.67879216     0.40700
H392        H  0.13124815  0.88764048  0.67837950     0.30700
H393        H  0.12107476  0.92052963  0.71105052     0.38300
H394        H  0.96340075  0.83186562  0.69682351     0.30200
H395        H  0.07669534  0.83691465  0.62723563     0.30200
H396        H  0.06178100  0.78330280  0.71663711     0.30500
Zr397      Zr  0.33226208  0.77196633  0.93208588     2.17500
O398        O  0.28598053  0.76612679  0.93109866    -0.51800
O399        O  0.34033340  0.74286875  0.89655611    -0.75100
O400        O  0.31284269  0.79545385  0.89717465    -0.81800
O401        O  0.33376108  0.72972941  0.99041892    -0.83600
O402        O  0.33704040  0.83017705  0.88739296    -0.79200
O403        O  0.31202976  0.73567351  0.95336118    -0.90800
O404        O  0.38321598  0.74100763  0.89029203    -0.76800
O405        O  0.36911384  0.78570767  0.90910479    -0.86300
O406        O  0.36693508  0.74781257  0.94883068    -0.86000
O407        O  0.33554200  0.81720293  0.94028844    -0.72700
O408        O  0.33403635  0.78237057  0.97676705    -0.84900
Zr409      Zr  0.41064253  0.81626891  0.97884071     2.26400
Zr410      Zr  0.37310848  0.83051353  0.91746129     2.06300
Zr411      Zr  0.36941081  0.75868916  0.99310419     2.10000
Zr412      Zr  0.40368387  0.76168663  0.92620228     1.78800
O413        O  0.34807443  0.75749875  0.03444610    -0.93700
O414        O  0.43131084  0.77207858  0.89020183    -0.41500
O415        O  0.40708583  0.77132811  0.97079650    -0.78100
O416        O  0.40867971  0.80644307  0.93386360    -0.96800
O417        O  0.37598988  0.84049304  0.96187479    -0.90100
O418        O  0.37370894  0.80320760  0.00188014    -0.93000
C419        C  0.36014972  0.73572857  0.88386654     1.00800
C420        C  0.31585579  0.72408961  0.97469371     1.13700
C421        C  0.31735416  0.81570937  0.88408588     1.04500
O422        O  0.38951307  0.83308758  0.87397031    -0.95100
O423        O  0.41089262  0.85829421  0.91904625    -0.90900
O424        O  0.43091567  0.85152982  0.95706232    -0.84000
C425        C  0.42871240  0.86288624  0.93545945     1.11100
O426        O  0.29279523  0.82303410  0.98731997    -0.97100
Zr427      Zr  0.33918428  0.82717519  0.98473359     1.88900
O428        O  0.40416879  0.85233333  0.00754273    -0.73700
O429        O  0.35702129  0.87417912  0.91708206    -0.53000
O430        O  0.31823949  0.86631627  0.97066433    -0.97700
O431        O  0.32544172  0.82315175  0.02907491    -0.54900
O432        O  0.36174847  0.86153572  0.00644873    -0.74300
C433        C  0.38486262  0.86647879  0.01316585     0.98100
O434        O  0.45735885  0.81434783  0.97982322    -0.63100
O435        O  0.38762455  0.71612579  0.99825901    -0.57900
O436        O  0.42730631  0.79562875  0.01736796    -0.94600
O437        O  0.40351365  0.75997032  0.02428888    -0.93000
O438        O  0.41013016  0.71596342  0.93213241    -0.93300
O439        O  0.44879400  0.75334249  0.93418122    -0.92100
C440        C  0.42213098  0.77499974  0.02974283     1.16900
H441        H  0.36407376  0.72971666  0.94640786     0.32900
H442        H  0.42436348  0.81163201  0.92559466     0.43700
H443        H  0.37566713  0.80633540  0.01994081     0.37300
H444        H  0.32058871  0.82608764  0.93413071     0.33700
H445        H  0.43360630  0.75570142  0.88100100     0.25500
H446        H  0.36064626  0.88042338  0.89959611     0.31500
H447        H  0.31399573  0.87556314  0.98661922     0.37400
H448        H  0.42019556  0.71052467  0.91705298     0.31800
H449        H  0.38017816  0.70963383  0.01439815     0.30700
H450        H  0.35523757  0.74229160  0.04312698     0.32400
H451        H  0.33914414  0.83113510  0.03939493     0.31400
H452        H  0.45624270  0.77036783  0.93777765     0.35400
H453        H  0.46167999  0.79656654  0.98463518     0.28100
H454        H  0.28191720  0.76034378  0.91354824     0.32300
H455        H  0.28710658  0.83607935  0.99979017     0.35200
H456        H  0.37958173  0.70558420  0.98476711     0.27800
H457        H  0.46277809  0.81544556  0.96172715     0.40700
H458        H  0.38778586  0.81553452  0.86712427     0.30700
H459        H  0.42046666  0.78249745  0.87873725     0.38300
H460        H  0.32676103  0.80467285  0.03286401     0.30200
H461        H  0.33817154  0.87245719  0.91773765     0.30200
H462        H  0.27867976  0.78354196  0.93237885     0.30500
Zr463      Zr  0.31663279  0.52000387  0.58717922     2.17500
O464        O  0.31317696  0.51277583  0.54127073    -0.51800
O465        O  0.35495120  0.49422512  0.59345668    -0.75100
O466        O  0.34963870  0.54274111  0.56459674    -0.81800
O467        O  0.26060524  0.47418659  0.59500482    -0.83600
O468        O  0.35916387  0.57943039  0.58588033    -0.79200
O469        O  0.29664180  0.48082666  0.57165736    -0.90800
O470        O  0.36274022  0.49264868  0.63604073    -0.76800
O471        O  0.34117959  0.53726545  0.62138049    -0.86300
O472        O  0.30383342  0.49700267  0.62408640    -0.86000
O473        O  0.30671906  0.56500111  0.58847833    -0.72700
O474        O  0.27172924  0.52832547  0.59108366    -0.84900
Zr475      Zr  0.27261303  0.56681532  0.66548130     2.26400
Zr476      Zr  0.33101549  0.58180393  0.62375023     2.06300
Zr477      Zr  0.25919004  0.50582874  0.62869876     2.10000
Zr478      Zr  0.32798952  0.51437517  0.65820052     1.78800
O479        O  0.21654208  0.50150977  0.61054820    -0.93700
O480        O  0.36698045  0.52791439  0.67978640    -0.41500
O481        O  0.28309728  0.52216390  0.66390589    -0.78100
O482        O  0.31791813  0.55885139  0.66137998    -0.96800
O483        O  0.28623112  0.58987316  0.62868673    -0.90100
O484        O  0.24849136  0.55014782  0.63088574    -0.93000
C485        C  0.36868453  0.48767765  0.61273711     1.00800
C486        C  0.27608766  0.46834938  0.57689376     1.13700
C487        C  0.36228432  0.56354498  0.56722137     1.04500
O488        O  0.37486221  0.58613688  0.63873274    -0.95100
O489        O  0.33080249  0.61126492  0.66061116    -0.90900
O490        O  0.29501723  0.60267761  0.68386842    -0.84000
C491        C  0.31569894  0.61520362  0.67975884     1.11100
O492        O  0.25483069  0.56637135  0.54869542    -0.97100
Zr493      Zr  0.26209128  0.57304649  0.59419188     1.88900
O494        O  0.24384661  0.60280603  0.65789620    -0.73700
O495        O  0.33016929  0.62482672  0.60592826    -0.53000
O496        O  0.27549743  0.61054549  0.57006113    -0.97700
O497        O  0.21690005  0.56682396  0.58438232    -0.54900
O498        O  0.24036481  0.60836997  0.61504584    -0.74300
C499        C  0.23588123  0.61516076  0.63818739     0.98100
O500        O  0.27144557  0.56603146  0.71219832    -0.63100
O501        O  0.25768061  0.46445464  0.65004617    -0.57900
O502        O  0.23412473  0.54740742  0.68374801    -0.94600
O503        O  0.22936648  0.50910855  0.66384648    -0.93000
O504        O  0.32277474  0.46997085  0.67102357    -0.93300
O505        O  0.32460600  0.51013552  0.70438908    -0.92100
C506        C  0.22283343  0.52576006  0.68063102     1.16900
H507        H  0.30718145  0.47893360  0.62218892     0.32900
H508        H  0.32687851  0.56513104  0.67623657     0.43700
H509        H  0.23035473  0.55251141  0.63368191     0.37300
H510        H  0.31168729  0.57314493  0.57267761     0.33700
H511        H  0.37439441  0.51196350  0.68676923     0.25500
H512        H  0.34796598  0.63106554  0.60768284     0.31500
H513        H  0.25975438  0.62083685  0.56791033     0.37400
H514        H  0.33970452  0.46495939  0.67785908     0.31800
H515        H  0.24291252  0.45553277  0.64225470     0.30700
H516        H  0.21129558  0.48379975  0.61466350     0.32400
H517        H  0.20740871  0.57255383  0.59971535     0.31400
H518        H  0.31180537  0.52312391  0.70945634     0.35400
H519        H  0.26892781  0.54786414  0.71686792     0.28100
H520        H  0.33032954  0.50698063  0.53570072     0.32300
H521        H  0.24293947  0.58009674  0.54336199     0.35200
H522        H  0.27281456  0.45502425  0.64369081     0.27800
H523        H  0.28915516  0.56964727  0.71783643     0.40700
H524        H  0.37430919  0.58052439  0.65678357     0.30700
H525        H  0.37877172  0.53283606  0.66582129     0.38300
H526        H  0.21460857  0.54804546  0.58409073     0.30200
H527        H  0.32781347  0.62234947  0.58732697     0.30200
H528        H  0.31108975  0.52997404  0.53366272     0.30500
Zr529      Zr  0.52142168  0.58290148  0.31491656     2.17500
O530        O  0.51836752  0.53643961  0.31259622    -0.51800
O531        O  0.49427345  0.58972153  0.35196962    -0.75100
O532        O  0.54396391  0.56287214  0.34981375    -0.81800
O533        O  0.47597842  0.58723660  0.25925411    -0.83600
O534        O  0.57964603  0.58589455  0.35921410    -0.79200
O535        O  0.48265925  0.56510691  0.29597668    -0.90800
O536        O  0.49070356  0.63245520  0.35840347    -0.76800
O537        O  0.53627642  0.61877634  0.33865379    -0.86300
O538        O  0.49710765  0.61843473  0.30041802    -0.86000
O539        O  0.56650577  0.58596705  0.30607152    -0.72700
O540        O  0.53048719  0.58552506  0.27003425    -0.84900
Zr541      Zr  0.56557453  0.66168061  0.26961767     2.26400
Zr542      Zr  0.58095421  0.62267009  0.32962420     2.06300
Zr543      Zr  0.50659863  0.62188637  0.25592761     2.10000
Zr544      Zr  0.51226455  0.65427957  0.32364158     1.78800
O545        O  0.50007475  0.60300604  0.21392230    -0.93700
O546        O  0.52513704  0.67784786  0.36166895    -0.41500
O547        O  0.52069938  0.65874327  0.27879807    -0.78100
O548        O  0.55679471  0.65878657  0.31465258    -0.96800
O549        O  0.58996902  0.62639293  0.28496042    -0.90100
O550        O  0.55115959  0.62550974  0.24626973    -0.93000
C551        C  0.48652644  0.60915358  0.36481855     1.00800
C552        C  0.47023106  0.56950121  0.27522462     1.13700
C553        C  0.56438017  0.56680492  0.36279090     1.04500
O554        O  0.58304236  0.64090412  0.37237311    -0.95100
O555        O  0.60921012  0.66038575  0.32827756    -0.90900
O556        O  0.59980612  0.68279504  0.29222763    -0.84000
C557        C  0.61234610  0.67955789  0.31303711     1.11100
O558        O  0.57444976  0.54390283  0.25792852    -0.97100
Zr559      Zr  0.57539954  0.59037042  0.26149836     1.88900
O560        O  0.60247289  0.65518594  0.24196073    -0.73700
O561        O  0.62421852  0.60544524  0.33115389    -0.53000
O562        O  0.61482648  0.56877232  0.27374622    -0.97700
O563        O  0.56783352  0.57819134  0.21713931    -0.54900
O564        O  0.60953321  0.61248520  0.23901911    -0.74300
C565        C  0.61548007  0.63581234  0.23424604     0.98100
O566        O  0.56224856  0.70823943  0.26748059    -0.63100
O567        O  0.46545827  0.64376404  0.25432598    -0.57900
O568        O  0.54639545  0.67781545  0.23025460    -0.94600
O569        O  0.51026181  0.65462231  0.22341115    -0.93000
O570        O  0.46761090  0.66599076  0.31703670    -0.93300
O571        O  0.50651718  0.70037426  0.32057462    -0.92100
C572        C  0.52604634  0.67247090  0.21751382     1.16900
H573        H  0.47904543  0.61586885  0.30345322     0.32900
H574        H  0.56225439  0.67419348  0.32321810     0.43700
H575        H  0.55394700  0.62776962  0.22817637     0.37300
H576        H  0.57521924  0.57075959  0.31183155     0.33700
H577        H  0.50891296  0.68198869  0.37052155     0.25500
H578        H  0.62889154  0.60588403  0.34947740     0.31500
H579        H  0.62666335  0.58268686  0.27869116     0.37400
H580        H  0.45750031  0.65274419  0.32600604     0.31800
H581        H  0.45773056  0.63830252  0.23794829     0.30700
H582        H  0.48374246  0.61036023  0.20778785     0.32400
H583        H  0.57481236  0.59234712  0.20670275     0.31400
H584        H  0.51668475  0.70548115  0.30545579     0.35400
H585        H  0.54411417  0.71186811  0.26339714     0.28100
H586        H  0.51193474  0.53088741  0.32950704     0.32300
H587        H  0.58605412  0.53961866  0.24359207     0.35200
H588        H  0.45482993  0.63538631  0.26755349     0.27800
H589        H  0.56401584  0.71423520  0.28533387     0.40700
H590        H  0.57074479  0.63079238  0.38261467     0.30700
H591        H  0.53339869  0.66491684  0.37272676     0.38300
H592        H  0.54906423  0.57938404  0.21494003     0.30200
H593        H  0.62222334  0.58704524  0.32721734     0.30200
H594        H  0.53627203  0.53029768  0.31187739     0.30500
Zr595      Zr  0.66596806  0.26962433  0.56499622     2.17500
O596        O  0.71249964  0.26656849  0.56350916    -0.51800
O597        O  0.66046509  0.24109957  0.60104350    -0.75100
O598        O  0.68520493  0.29201460  0.60054444    -0.81800
O599        O  0.66037959  0.22427028  0.50848819    -0.83600
O600        O  0.66243172  0.32815670  0.60890862    -0.79200
O601        O  0.68392503  0.23182785  0.54420582    -0.90800
O602        O  0.61777191  0.23782021  0.60796823    -0.76800
O603        O  0.62993042  0.28381787  0.58903712    -0.86300
O604        O  0.63056264  0.24530459  0.55012257    -0.86000
O605        O  0.66250738  0.31485001  0.55687751    -0.72700
O606        O  0.66289557  0.27922104  0.52034418    -0.84900
Zr607      Zr  0.58668793  0.31426325  0.52067332     2.26400
Zr608      Zr  0.62528692  0.32850206  0.58045491     2.06300
Zr609      Zr  0.62649741  0.25570708  0.50583008     2.10000
Zr610      Zr  0.59474686  0.25959788  0.57380820     1.78800
O611        O  0.64798367  0.25092981  0.46483178    -0.93700
O612        O  0.57147374  0.26922631  0.61295240    -0.41500
O613        O  0.58985113  0.26933917  0.52926309    -0.78100
O614        O  0.58925806  0.30434926  0.56552010    -0.96800
O615        O  0.62210246  0.33808002  0.53609949    -0.90100
O616        O  0.62281454  0.30031619  0.49680888    -0.93000
C617        C  0.64116638  0.23336976  0.61406491     1.00800
C618        C  0.67879874  0.21902120  0.52383465     1.13700
C619        C  0.68132205  0.31285641  0.61285079     1.04500
O620        O  0.60720490  0.32862870  0.62330454    -0.95100
O621        O  0.58826948  0.35753989  0.57918666    -0.90900
O622        O  0.56620925  0.34918988  0.54274160    -0.84000
C623        C  0.56959269  0.36158599  0.56359653     1.11100
O624        O  0.70439446  0.31965405  0.50756407    -0.97100
Zr625      Zr  0.65820112  0.32409044  0.51240287     1.88900
O626        O  0.59373591  0.35210645  0.49450060    -0.73700
O627        O  0.63913357  0.37283385  0.58369485    -0.53000
O628        O  0.68007904  0.36287081  0.52598625    -0.97700
O629        O  0.67035741  0.31966373  0.46761438    -0.54900
O630        O  0.63642333  0.35974948  0.49228083    -0.74300
C631        C  0.61304078  0.36586013  0.48793451     0.98100
O632        O  0.54007219  0.31123911  0.51923742    -0.63100
O633        O  0.60363835  0.21517525  0.50342269    -0.57900
O634        O  0.57019870  0.29658092  0.48096038    -0.94600
O635        O  0.59328599  0.26048768  0.47377029    -0.93000
O636        O  0.58404459  0.21510673  0.56511122    -0.93300
O637        O  0.54891150  0.25204806  0.57033603    -0.92100
C638        C  0.57539589  0.27634312  0.46804412     1.16900
H639        H  0.63320835  0.22720803  0.55275055     0.32900
H640        H  0.57383940  0.30976933  0.57414575     0.43700
H641        H  0.62051254  0.30340456  0.47873863     0.37300
H642        H  0.67765407  0.32364854  0.56269136     0.33700
H643        H  0.56774628  0.25231512  0.62059328     0.25500
H644        H  0.63482222  0.37788582  0.60141105     0.31500
H645        H  0.66697942  0.37260764  0.53556843     0.37400
H646        H  0.58862209  0.20575097  0.58089486     0.31800
H647        H  0.60653800  0.20904639  0.48576309     0.30700
H648        H  0.64287094  0.23378015  0.45867888     0.32400
H649        H  0.65500449  0.32445497  0.45764947     0.31400
H650        H  0.54147454  0.26912696  0.56699895     0.35400
H651        H  0.53640518  0.29297918  0.51586246     0.28100
H652        H  0.71764946  0.25973741  0.58038508     0.32300
H653        H  0.70982925  0.33419327  0.49673539     0.35200
H654        H  0.61354137  0.20324652  0.51426338     0.27800
H655        H  0.53427735  0.31370288  0.53708007     0.40700
H656        H  0.61460649  0.31337525  0.63169421     0.30700
H657        H  0.58442595  0.27683421  0.62444915     0.38300
H658        H  0.67219345  0.30101841  0.46495303     0.30200
H659        H  0.65805404  0.37217521  0.58336686     0.30200
H660        H  0.71868513  0.28445739  0.56337754     0.30500
Zr661      Zr  0.68133626  0.02042855  0.91238954     2.17500
O662        O  0.68230319  0.01499441  0.95867632    -0.51800
O663        O  0.64516889  0.99196353  0.90537185    -0.75100
O664        O  0.64692714  0.04335224  0.93276316    -0.81800
O665        O  0.73807626  0.97597362  0.90727248    -0.83600
O666        O  0.63837611  0.08033657  0.91167418    -0.79200
O667        O  0.70240651  0.98326559  0.93095187    -0.90800
O668        O  0.63705285  0.99116421  0.86282695    -0.76800
O669        O  0.65730953  0.03740333  0.87765678    -0.86300
O670        O  0.69453595  0.99698988  0.87581421    -0.86000
O671        O  0.69142279  0.06533329  0.91099898    -0.72700
O672        O  0.72636281  0.02853460  0.90913452    -0.84900
Zr673      Zr  0.72658128  0.06663637  0.83475820     2.26400
Zr674      Zr  0.66775504  0.08189447  0.87518018     2.06300
Zr675      Zr  0.73918771  0.00567429  0.87172337     2.10000
Zr676      Zr  0.67103889  0.01435067  0.84106888     1.78800
O677        O  0.78208424  0.99669245  0.88745819    -0.93700
O678        O  0.63156709  0.02650225  0.81952716    -0.41500
O679        O  0.71602011  0.02203288  0.83602549    -0.78100
O680        O  0.68128204  0.05882497  0.83790894    -0.96800
O681        O  0.71259834  0.08984576  0.87123615    -0.90100
O682        O  0.75025953  0.05001064  0.86971280    -0.93000
C683        C  0.63170111  0.98514743  0.88600493     1.00800
C684        C  0.72314752  0.97096738  0.92612085     1.13700
C685        C  0.63456415  0.06430205  0.92995986     1.04500
O686        O  0.62456501  0.08639060  0.85833214    -0.95100
O687        O  0.66887996  0.11191515  0.83899691    -0.90900
O688        O  0.70564966  0.10380071  0.81715860    -0.84000
C689        C  0.68487385  0.11633305  0.82072819     1.11100
O690        O  0.74169435  0.06962211  0.95226241    -0.97100
Zr691      Zr  0.73630874  0.07321101  0.90612441     1.88900
O692        O  0.75559842  0.10215342  0.84228347    -0.73700
O693        O  0.66935361  0.12424375  0.89441362    -0.53000
O694        O  0.72524069  0.11250077  0.92864381    -0.97700
O695        O  0.78066378  0.06437836  0.91757842    -0.54900
O696        O  0.76014492  0.10703571  0.88508200    -0.74300
C697        C  0.76431293  0.11398347  0.86194188     0.98100
O698        O  0.72749629  0.06741563  0.78809554    -0.63100
O699        O  0.73578861  0.96469184  0.84993807    -0.57900
O700        O  0.76460011  0.04636173  0.81658026    -0.94600
O701        O  0.76990186  0.00851647  0.83715299    -0.93000
O702        O  0.67839528  0.97091680  0.82595874    -0.93300
O703        O  0.67216358  0.01336669  0.79458994    -0.92100
C704        C  0.77614203  0.02490425  0.81998717     1.16900
H705        H  0.69128098  0.97890668  0.87787992     0.32900
H706        H  0.67268885  0.06529349  0.82291097     0.43700
H707        H  0.76837928  0.05223974  0.86708105     0.37300
H708        H  0.68608115  0.07357076  0.92662665     0.33700
H709        H  0.62185939  0.01036834  0.81756286     0.25500
H710        H  0.65121950  0.12932612  0.89640938     0.31500
H711        H  0.72462647  0.12589720  0.91530205     0.37400
H712        H  0.66973985  0.95972869  0.83852553     0.31800
H713        H  0.73464736  0.96908184  0.83157593     0.30700
H714        H  0.78620497  0.97947968  0.88075415     0.32400
H715        H  0.79101198  0.06951302  0.90259419     0.31400
H716        H  0.68691299  0.02429014  0.78994370     0.35400
H717        H  0.73127075  0.04966408  0.78273925     0.28100
H718        H  0.66467544  0.01030513  0.96378759     0.32300
H719        H  0.75454418  0.08272526  0.95693685     0.35200
H720        H  0.75287714  0.95677558  0.85187349     0.27800
H721        H  0.70948872  0.06993277  0.78280856     0.40700
H722        H  0.61498858  0.07170586  0.86547118     0.30700
H723        H  0.62185225  0.03634185  0.83243822     0.38300
H724        H  0.78183331  0.04549497  0.91796763     0.30200
H725        H  0.67538915  0.12125269  0.91207910     0.30200
H726        H  0.68500254  0.03238116  0.96564793     0.30500
Zr727      Zr  0.91395564  0.68286047  0.01973678     2.17500
O728        O  0.96040756  0.68267738  0.01487363    -0.51800
O729        O  0.90721178  0.64578227  0.99225786    -0.75100
O730        O  0.93401765  0.64884752  0.04383428    -0.81800
O731        O  0.90863326  0.73878993  0.97396901    -0.83600
O732        O  0.91073058  0.63996202  0.07941069    -0.79200
O733        O  0.93209890  0.70307819  0.98183590    -0.90800
O734        O  0.86440898  0.64022038  0.98806379    -0.76800
O735        O  0.87777125  0.65929159  0.03419091    -0.86300
O736        O  0.87857763  0.69784983  0.99544635    -0.86000
O737        O  0.91063374  0.69205110  0.06469896    -0.72700
O738        O  0.91113542  0.72786003  0.02883605    -0.84900
Zr739      Zr  0.83508275  0.72893872  0.06405871     2.26400
Zr740      Zr  0.87356080  0.66862784  0.07871889     2.06300
Zr741      Zr  0.87464760  0.74238434  0.00516147     2.10000
Zr742      Zr  0.84253398  0.67476899  0.01011907     1.78800
O743        O  0.89439390  0.78394106  0.99817774    -0.93700
O744        O  0.81929079  0.63568376  0.02022055    -0.41500
O745        O  0.83786402  0.71948607  0.01927462    -0.78100
O746        O  0.83745902  0.68383090  0.05466183    -0.96800
O747        O  0.87028760  0.71320620  0.08808862    -0.90100
O748        O  0.87125135  0.75232876  0.04963035    -0.93000
C749        C  0.88764204  0.63338496  0.98402938     1.00800
C750        C  0.92688282  0.72322212  0.96874270     1.13700
C751        C  0.93011972  0.63644433  0.06461288     1.04500
O752        O  0.85729394  0.62502788  0.07942473    -0.95100
O753        O  0.83566965  0.66982429  0.10640802    -0.90900
O754        O  0.81456146  0.70708783  0.09885221    -0.84000
C755        C  0.81730917  0.68576028  0.11052236     1.11100
O756        O  0.95278953  0.74056976  0.07350628    -0.97100
Zr757      Zr  0.90633152  0.73660306  0.07363028     1.88900
O758        O  0.84145177  0.75594340  0.10158592    -0.73700
O759        O  0.88801642  0.66629764  0.12286083    -0.53000
O760        O  0.92684553  0.72362975  0.11334435    -0.97700
O761        O  0.91872334  0.78102994  0.06664185    -0.54900
O762        O  0.88425792  0.75838117  0.10807449    -0.74300
C763        C  0.86107425  0.76315563  0.11453621     0.98100
O764        O  0.78864543  0.73278258  0.06018699    -0.63100
O765        O  0.85243129  0.74407794  0.96427669    -0.57900
O766        O  0.81924915  0.76861785  0.04587143    -0.94600
O767        O  0.84097533  0.77435249  0.00873271    -0.93000
O768        O  0.83251608  0.68457407  0.96570307    -0.93300
O769        O  0.79643145  0.67708190  0.00394536    -0.92100
C770        C  0.82375197  0.78081552  0.02506013     1.16900
H771        H  0.88122278  0.69491077  0.97743426     0.32900
H772        H  0.82193448  0.67537119  0.06002496     0.43700
H773        H  0.86909863  0.77053073  0.05246207     0.37300
H774        H  0.92576110  0.68645041  0.07365683     0.33700
H775        H  0.81474334  0.62823692  0.00342906     0.25500
H776        H  0.88422840  0.64852623  0.12815207     0.31500
H777        H  0.91296279  0.71587335  0.12361370     0.37400
H778        H  0.84080044  0.67091137  0.95556686     0.31800
H779        H  0.85784775  0.76047959  0.95655345     0.30700
H780        H  0.88529327  0.79115526  0.98324249     0.32400
H781        H  0.90625074  0.79135644  0.07644314     0.31400
H782        H  0.79177251  0.69469826  0.00904240     0.35400
H783        H  0.78532489  0.73353540  0.04157573     0.28100
H784        H  0.96483906  0.66532642  0.00872903     0.32300
H785        H  0.95674051  0.75464147  0.08553258     0.35200
H786        H  0.86074196  0.73087151  0.95357273     0.27800
H787        H  0.78158396  0.71599971  0.06532547     0.40700
H788        H  0.83858150  0.62677195  0.07710632     0.30700
H789        H  0.83243228  0.62396125  0.02715390     0.38300
H790        H  0.91461291  0.78449721  0.04851402     0.30200
H791        H  0.90691598  0.66708013  0.12192944     0.30200
H792        H  0.96739112  0.68360621  0.03243295     0.30500
C793        C  0.73073376  0.94969940  0.94336385    -0.03900
C794        C  0.75244708  0.93486571  0.93757373    -0.09600
C795        C  0.76006654  0.91503708  0.95365244    -0.17300
C796        C  0.74621506  0.90955908  0.97583082     0.24900
C797        C  0.72462414  0.92418577  0.98197350    -0.19000
C798        C  0.71689303  0.94415254  0.96582096    -0.07900
C799        C  0.75433851  0.88843408  0.99150672    -0.14300
C800        C  0.76412971  0.86987677  0.00107345    -0.14000
C801        C  0.77887932  0.84762066  0.00782013     0.24800
C802        C  0.77463512  0.83436222  0.03067307    -0.19400
C803        C  0.78923000  0.81262052  0.03645184    -0.07900
C804        C  0.80823874  0.80392438  0.01939844    -0.04000
C805        C  0.81233561  0.81757254  0.99660260    -0.09300
C806        C  0.79778031  0.83916688  0.99090749    -0.16900
H807        H  0.76361937  0.93849460  0.92053162     0.11200
H808        H  0.77678094  0.90383135  0.94867679     0.10500
H809        H  0.71374098  0.92011074  0.99911096     0.10400
H810        H  0.70017021  0.95524177  0.97093510     0.10900
H811        H  0.76007119  0.84075519  0.04394341     0.11000
H812        H  0.78559512  0.80263062  0.05420127     0.11000
H813        H  0.82676902  0.81155877  0.98303152     0.11100
H814        H  0.80125543  0.84928980  0.97317993     0.09900
C815        C  0.64616168  0.21931744  0.63825506    -0.03900
C816        C  0.67117093  0.21724430  0.64811022    -0.09600
C817        C  0.67550541  0.20582790  0.67193102    -0.17300
C818        C  0.65497464  0.19627830  0.68625621     0.24900
C819        C  0.63013714  0.19785887  0.67642124    -0.19000
C820        C  0.62573938  0.20928402  0.65265949    -0.07900
C821        C  0.65926924  0.18522692  0.71119090    -0.14300
C822        C  0.66291128  0.17595073  0.73203555    -0.14000
C823        C  0.66814838  0.16410136  0.75642226     0.24800
C824        C  0.64814416  0.15553641  0.77212828    -0.19400
C825        C  0.65346900  0.14163676  0.79444884    -0.07900
C826        C  0.67889402  0.13592391  0.80110519    -0.04000
C827        C  0.69882601  0.14600110  0.78601235    -0.09300
C828        C  0.69348259  0.15990106  0.76386521    -0.16900
H829        H  0.68734868  0.22492185  0.63770059     0.11200
H830        H  0.69483535  0.20474189  0.67931073     0.10500
H831        H  0.61408490  0.19052724  0.68727347     0.10400
H832        H  0.60625878  0.21058278  0.64576383     0.10900
H833        H  0.62843398  0.15876312  0.76663153     0.11000
H834        H  0.63773228  0.13403991  0.80556013     0.11000
H835        H  0.71863333  0.14213540  0.79071062     0.11100
H836        H  0.70914964  0.16655617  0.75204610     0.09900
C837        C  0.60794410  0.39084262  0.47535769    -0.03900
C838        C  0.62821954  0.40716038  0.46832515    -0.09600
C839        C  0.62329255  0.43103469  0.45727029    -0.17300
C840        C  0.59808231  0.43904440  0.45309569     0.24900
C841        C  0.57780169  0.42311306  0.46032196    -0.19000
C842        C  0.58266064  0.39923931  0.47137000    -0.07900
C843        C  0.59303325  0.46319995  0.44066323    -0.14300
C844        C  0.58855335  0.48286184  0.42935269    -0.14000
C845        C  0.58238278  0.50542815  0.41462853     0.24800
C846        C  0.55725637  0.50932309  0.40637288    -0.19400
C847        C  0.55137118  0.52995420  0.39047901    -0.07900
C848        C  0.57054051  0.54715127  0.38242253    -0.04000
C849        C  0.59559384  0.54371807  0.39161608    -0.09300
C850        C  0.60147355  0.52290731  0.40753421    -0.16900
H851        H  0.64791655  0.40153605  0.47137925     0.11200
H852        H  0.63916869  0.44318445  0.45182875     0.10500
H853        H  0.55819369  0.42907086  0.45727356     0.10400
H854        H  0.56657028  0.38740490  0.47683960     0.10900
H855        H  0.54226535  0.49605760  0.41173873     0.11000
H856        H  0.53181009  0.53207662  0.38399990     0.11000
H857        H  0.61079036  0.55648928  0.38572855     0.11100
H858        H  0.62101702  0.52011285  0.41380347     0.09900
C859        C  0.79686375  0.67900419  0.12884399    -0.03900
C860        C  0.79158340  0.65335483  0.13481369    -0.09600
C861        C  0.76968465  0.64701512  0.14888349    -0.17300
C862        C  0.75298970  0.66622915  0.15726224     0.24900
C863        C  0.75871541  0.69184856  0.15230531    -0.19000
C864        C  0.78046355  0.69821345  0.13821594    -0.07900
C865        C  0.72945868  0.65977905  0.17005626    -0.14300
C866        C  0.70936499  0.65513159  0.18041821    -0.14000
C867        C  0.68538260  0.65009675  0.19304914     0.24800
C868        C  0.66791576  0.66995256  0.19719509    -0.19400
C869        C  0.64504690  0.66530176  0.21031754    -0.07900
C870        C  0.63922788  0.64063160  0.21936194    -0.04000
C871        C  0.65680454  0.62072497  0.21476117    -0.09300
C872        C  0.67970189  0.62546004  0.20174076    -0.16900
H873        H  0.80369829  0.63816708  0.12765599     0.11200
H874        H  0.76542153  0.62710852  0.15263927     0.10500
H875        H  0.74601470  0.70688944  0.15876459     0.10400
H876        H  0.78404056  0.71817712  0.13403617     0.10900
H877        H  0.67209412  0.68910644  0.19052572     0.11000
H878        H  0.63199913  0.68105797  0.21348326     0.11000
H879        H  0.65308798  0.60154348  0.22158172     0.11100
H880        H  0.69309144  0.60994924  0.19868483     0.09900
C881        C  0.54984007  0.38108235  0.57000790    -0.03900
C882        C  0.54843304  0.39233413  0.59440718    -0.09600
C883        C  0.52779939  0.40831005  0.60086339    -0.17300
C884        C  0.50842406  0.41333281  0.58299262     0.24900
C885        C  0.51036389  0.40314654  0.55838808    -0.19000
C886        C  0.53082531  0.38725363  0.55192311    -0.07900
C887        C  0.48580376  0.42773151  0.58989039    -0.14300
C888        C  0.46582487  0.43859219  0.59429491    -0.14000
C889        C  0.44135603  0.45075773  0.59885185     0.24800
C890        C  0.42581082  0.45810078  0.57830999    -0.19400
C891        C  0.40203865  0.46973116  0.58273351    -0.07900
C892        C  0.39336521  0.47419700  0.60784824    -0.04000
C893        C  0.40913780  0.46663770  0.62833621    -0.09300
C894        C  0.43286545  0.45502148  0.62385515    -0.16900
H895        H  0.56274318  0.38810871  0.60874453     0.11200
H896        H  0.52662100  0.41617393  0.61996858     0.10500
H897        H  0.49565248  0.40695217  0.54431748     0.10400
H898        H  0.53132030  0.37925269  0.53284748     0.10900
H899        H  0.43209210  0.45490039  0.55884280     0.11000
H900        H  0.39058469  0.47542246  0.56646936     0.11000
H901        H  0.40325131  0.46984577  0.64790868     0.11100
H902        H  0.44462685  0.44941793  0.63994043     0.09900
C903        C  0.38088781  0.56937757  0.54651115    -0.03900
C904        C  0.38643899  0.55059803  0.52794368    -0.09600
C905        C  0.40155867  0.55635714  0.50673991    -0.17300
C906        C  0.41156699  0.58091313  0.50367232     0.24900
C907        C  0.40700753  0.59952539  0.52240901    -0.19000
C908        C  0.39180394  0.59379480  0.54376393    -0.07900
C909        C  0.42560161  0.58702469  0.48075810    -0.14300
C910        C  0.43645743  0.59122181  0.46083907    -0.14000
C911        C  0.44876000  0.59569861  0.43660472     0.24800
C912        C  0.45177081  0.62065117  0.42749432    -0.19400
C913        C  0.46359660  0.62501959  0.40392922    -0.07900
C914        C  0.47260990  0.60443335  0.38908765    -0.04000
C915        C  0.46933099  0.57938355  0.39837025    -0.09300
C916        C  0.45749033  0.57508287  0.42195045    -0.16900
H917        H  0.37861654  0.53148727  0.52943508     0.11200
H918        H  0.40500476  0.54175700  0.49245500     0.10500
H919        H  0.41473085  0.61861176  0.52023447     0.10400
H920        H  0.38794167  0.60865394  0.55763164     0.10900
H921        H  0.44504741  0.63675334  0.43864590     0.11000
H922        H  0.46587313  0.64455100  0.39747801     0.11000
H923        H  0.47617452  0.56309492  0.38758584     0.11100
H924        H  0.45523229  0.55567162  0.42879349     0.09900
C925        C  0.52003938  0.68772831  0.19444607    -0.03900
C926        C  0.52942654  0.71276040  0.19143653    -0.09600
C927        C  0.52221415  0.72747950  0.17023607    -0.17300
C928        C  0.50582987  0.71721573  0.15170093     0.24900
C929        C  0.49686311  0.69216224  0.15436017    -0.19000
C930        C  0.50383338  0.67755482  0.17555130    -0.07900
C931        C  0.49706451  0.73235668  0.13041208    -0.14300
C932        C  0.48675464  0.74265324  0.11252366    -0.14000
C933        C  0.47086390  0.75149395  0.09181420     0.24800
C934        C  0.44815091  0.73839941  0.08661920    -0.19400
C935        C  0.43225565  0.74630144  0.06673412    -0.07900
C936        C  0.43877306  0.76755427  0.05154864    -0.04000
C937        C  0.46162504  0.78078327  0.05697413    -0.09300
C938        C  0.47759735  0.77276170  0.07698304    -0.16900
H939        H  0.54176912  0.72115812  0.20577091     0.11200
H940        H  0.52913291  0.74691339  0.16848008     0.10500
H941        H  0.48413365  0.68401263  0.14019824     0.10400
H942        H  0.49640332  0.65829863  0.17721023     0.10900
H943        H  0.44271809  0.72193965  0.09796143     0.11000
H944        H  0.41487269  0.73560756  0.06322415     0.11000
H945        H  0.46729696  0.79711772  0.04560661     0.11100
H946        H  0.49515697  0.78306458  0.08080647     0.09900
C947        C  0.44913872  0.88145100  0.92891560    -0.03900
C948        C  0.45336893  0.88900891  0.90347605    -0.09600
C949        C  0.47510149  0.90331077  0.89702416    -0.17300
C950        C  0.49273413  0.91036155  0.91591296     0.24900
C951        C  0.48801141  0.90397014  0.94141613    -0.19000
C952        C  0.46640202  0.88967881  0.94789740    -0.07900
C953        C  0.51630886  0.92300478  0.90916757    -0.14300
C954        C  0.53664521  0.93290130  0.90444836    -0.14000
C955        C  0.56112616  0.94475588  0.89972933     0.24800
C956        C  0.57645565  0.95245196  0.92025642    -0.19400
C957        C  0.59971397  0.96496102  0.91583041    -0.07900
C958        C  0.60802655  0.97002171  0.89072650    -0.04000
C959        C  0.59272257  0.96162680  0.87020167    -0.09300
C960        C  0.56947929  0.94909131  0.87469535    -0.16900
H961        H  0.44053512  0.88293559  0.88842302     0.11200
H962        H  0.47853183  0.90821260  0.87721387     0.10500
H963        H  0.50142466  0.90940558  0.95623034     0.10400
H964        H  0.46367413  0.88438887  0.96771849     0.10900
H965        H  0.57024776  0.94912416  0.93972613     0.11000
H966        H  0.61090418  0.97112396  0.93210516     0.11000
H967        H  0.59847375  0.96510680  0.85063504     0.11100
H968        H  0.55785321  0.94312410  0.85863577     0.09900
C969        C  0.32257214  0.63437068  0.69957659    -0.03900
C970        C  0.30373248  0.64261769  0.71701989    -0.09600
C971        C  0.31030231  0.65718859  0.73835587    -0.17300
C972        C  0.33578873  0.66392174  0.74270567     0.24900
C973        C  0.35459255  0.65689954  0.72490340    -0.19000
C974        C  0.34802880  0.64224559  0.70338806    -0.07900
C975        C  0.34246375  0.67669151  0.76621709    -0.14300
C976        C  0.34638510  0.68641847  0.78677753    -0.14000
C977        C  0.34975981  0.69770909  0.81170085     0.24800
C978        C  0.37420816  0.69987510  0.82233953    -0.19400
C979        C  0.37749312  0.71157158  0.84614654    -0.07900
C980        C  0.35632254  0.72128566  0.85972963    -0.04000
C981        C  0.33174134  0.71842188  0.84914503    -0.09300
C982        C  0.32852535  0.70674800  0.82529955    -0.16900
H983        H  0.28390822  0.63707730  0.71466118     0.11200
H984        H  0.29555417  0.66254029  0.75189770     0.10500
H985        H  0.37441212  0.66203788  0.72807002     0.10400
H986        H  0.36299004  0.63608930  0.69046859     0.10900
H987        H  0.39078073  0.69282436  0.81209299     0.11000
H988        H  0.39669127  0.71335618  0.85370356     0.11000
H989        H  0.31504193  0.72572372  0.85897912     0.11100
H990        H  0.30948487  0.70507975  0.81730784     0.09900
C991        C  0.94256115  0.72907578  0.94584078    -0.03900
C992        C  0.96540075  0.71578276  0.94057235    -0.09600
C993        C  0.98013897  0.72207567  0.91906236    -0.17300
C994        C  0.97209423  0.74156481  0.90256444     0.24900
C995        C  0.94924659  0.75452682  0.90748736    -0.19000
C996        C  0.93461834  0.74839199  0.92888452    -0.07900
C997        C  0.98723182  0.74933744  0.88092897    -0.14300
C998        C  0.99702602  0.75957789  0.86274447    -0.14000
C999        C  0.00479773  0.77558180  0.84174807     0.24800
C1000       C  0.98967873  0.79671134  0.83549352    -0.19400
C1001       C  0.99650364  0.81262069  0.81523396    -0.07900
C1002       C  0.01863713  0.80765121  0.80074413    -0.04000
C1003       C  0.03399698  0.78651708  0.80737304    -0.09300
C1004       C  0.02707211  0.77054964  0.82775287    -0.16900
H1005       H  0.97202886  0.70080010  0.95320667     0.11200
H1006       H  0.99784373  0.71194576  0.91545216     0.10500
H1007       H  0.94282588  0.76963769  0.89486295     0.10400
H1008       H  0.91706314  0.75889407  0.93212955     0.10900
H1009       H  0.97246467  0.80086239  0.84627144     0.11000
H1010       H  0.98427084  0.82873010  0.81084270     0.11000
H1011       H  0.05116953  0.78214016  0.79665648     0.11100
H1012       H  0.03898441  0.75429101  0.83249343     0.09900
C1013       C  0.79824028  0.01839101  0.80327817    -0.03900
C1014       C  0.80699176  0.03532949  0.78424075    -0.09600
C1015       C  0.82814049  0.02895248  0.76896362    -0.17300
C1016       C  0.84070598  0.00555168  0.77246623     0.24900
C1017       C  0.83203569  0.98863059  0.79124208    -0.19000
C1018       C  0.81102555  0.99490733  0.80645179    -0.07900
C1019       C  0.86259329  0.99836226  0.75724167    -0.14300
C1020       C  0.88115410  0.98877063  0.74735613    -0.14000
C1021       C  0.90306830  0.97368629  0.73996127     0.24800
C1022       C  0.91209305  0.95518687  0.75696895    -0.19400
C1023       C  0.93313951  0.94008479  0.75062094    -0.07900
C1024       C  0.94570191  0.94312777  0.72700695    -0.04000
C1025       C  0.93649923  0.96178639  0.70987552    -0.09300
C1026       C  0.91525462  0.97694406  0.71631280    -0.16900
H1027       H  0.79759656  0.05352010  0.78122282     0.11200
H1028       H  0.83467654  0.04224642  0.75450643     0.10500
H1029       H  0.84158934  0.97048391  0.79417609     0.10400
H1030       H  0.80489390  0.98130430  0.82079179     0.10900
H1031       H  0.90280984  0.95240988  0.77527867     0.11000
H1032       H  0.93957988  0.92602672  0.76436377     0.11000
H1033       H  0.94565706  0.96464087  0.69153909     0.11100
H1034       H  0.90838953  0.99114102  0.70290945     0.09900
C1035       C  0.13082678  0.79777162  0.67793487    -0.03900
C1036       C  0.13760057  0.77948389  0.69654123    -0.09600
C1037       C  0.15250207  0.75827378  0.69013333    -0.17300
C1038       C  0.16096538  0.75482142  0.66503788     0.24900
C1039       C  0.15497509  0.77320428  0.64646651    -0.19000
C1040       C  0.14004576  0.79459236  0.65286858    -0.07900
C1041       C  0.17470423  0.73176700  0.65842927    -0.14300
C1042       C  0.18521415  0.71160309  0.65421824    -0.14000
C1043       C  0.19717585  0.68702169  0.65012374     0.24800
C1044       C  0.20251617  0.67854101  0.62532979    -0.19400
C1045       C  0.21447476  0.65490710  0.62141702    -0.07900
C1046       C  0.22137273  0.63932696  0.64229655    -0.04000
C1047       C  0.21549995  0.64785384  0.66713591    -0.09300
C1048       C  0.20349387  0.67148352  0.67098244    -0.16900
H1049       H  0.13091082  0.78122768  0.71604968     0.11200
H1050       H  0.15695174  0.74424033  0.70469292     0.10500
H1051       H  0.16134470  0.77072031  0.62693064     0.10400
H1052       H  0.13499317  0.80811296  0.63805014     0.10900
H1053       H  0.19764920  0.69030124  0.60900634     0.11000
H1054       H  0.21871252  0.64907923  0.60202206     0.11000
H1055       H  0.22049297  0.63644810  0.68365387     0.11100
H1056       H  0.19935841  0.67774299  0.69027590     0.09900
C1057       C  0.29759185  0.82310969  0.86497394    -0.03900
C1058       C  0.27696417  0.80647998  0.85998050    -0.09600
C1059       C  0.25651871  0.81421529  0.84467689    -0.17300
C1060       C  0.25623158  0.83865020  0.83390273     0.24900
C1061       C  0.27707354  0.85506885  0.83784119    -0.19000
C1062       C  0.29767259  0.84734722  0.85324815    -0.07900
C1063       C  0.23395969  0.84679657  0.81973777    -0.14300
C1064       C  0.21408618  0.85155393  0.80892864    -0.14000
C1065       C  0.18948463  0.85506779  0.79685649     0.24800
C1066       C  0.18024053  0.87960662  0.79158439    -0.19400
C1067       C  0.15618955  0.88278119  0.78025038    -0.07900
C1068       C  0.14094142  0.86142499  0.77400192    -0.04000
C1069       C  0.15045244  0.83684271  0.77938392    -0.09300
C1070       C  0.17449911  0.83373598  0.79073464    -0.16900
H1071       H  0.27621039  0.78762450  0.86847064     0.11200
H1072       H  0.24060418  0.80127387  0.84172017     0.10500
H1073       H  0.27712908  0.87402434  0.82952516     0.10400
H1074       H  0.31317431  0.86063831  0.85666683     0.10900
H1075       H  0.19160800  0.89629126  0.79621061     0.11000
H1076       H  0.14965525  0.90199831  0.77620938     0.11000
H1077       H  0.13942579  0.81997331  0.77466300     0.11100
H1078       H  0.18143055  0.81463734  0.79472577     0.09900
C1079       C  0.72272569  0.85704499  0.35701569    -0.03900
C1080       C  0.71521150  0.84190816  0.37802333    -0.09600
C1081       C  0.70339709  0.81818430  0.37430368    -0.17300
C1082       C  0.69886254  0.80914347  0.34956396     0.24900
C1083       C  0.70600566  0.82411008  0.32854764    -0.19000
C1084       C  0.71785769  0.84784883  0.33220302    -0.07900
C1085       C  0.68665120  0.78468838  0.34563493    -0.14300
C1086       C  0.67578181  0.76479173  0.34117045    -0.14000
C1087       C  0.66150219  0.74231764  0.33388046     0.24800
C1088       C  0.64998719  0.74148410  0.30981952    -0.19400
C1089       C  0.63477568  0.72069167  0.30288890    -0.07900
C1090       C  0.63070060  0.70020060  0.31994019    -0.04000
C1091       C  0.64290235  0.70084939  0.34390325    -0.09300
C1092       C  0.65819894  0.72180725  0.35081831    -0.16900
H1093       H  0.71872070  0.84822658  0.39740580     0.11200
H1094       H  0.69791137  0.80685147  0.39074037     0.10500
H1095       H  0.70253083  0.81736168  0.30929084     0.10400
H1096       H  0.72346624  0.85883078  0.31558896     0.10900
H1097       H  0.65237734  0.75718220  0.29652362     0.11000
H1098       H  0.62578167  0.72099637  0.28425995     0.11000
H1099       H  0.64012738  0.68552323  0.35751822     0.11100
H1100       H  0.66703094  0.72222924  0.36952610     0.09900
C1101       C  0.85705427  0.77707023  0.13903877    -0.03900
C1102       C  0.87823031  0.78428243  0.15410793    -0.09600
C1103       C  0.87475477  0.79534089  0.17818718    -0.17300
C1104       C  0.85008844  0.79947866  0.18765764     0.24900
C1105       C  0.82887923  0.79308409  0.17258252    -0.19000
C1106       C  0.83229502  0.78194111  0.14846236    -0.07900
C1107       C  0.84648959  0.81019404  0.21283029    -0.14300
C1108       C  0.84243041  0.81972676  0.23346747    -0.14000
C1109       C  0.83554312  0.83267179  0.25683368     0.24800
C1110       C  0.80999811  0.83942727  0.26094728    -0.19400
C1111       C  0.80328182  0.85456934  0.28186208    -0.07900
C1112       C  0.82204399  0.86324429  0.29910627    -0.04000
C1113       C  0.84751338  0.85521657  0.29567106    -0.09300
C1114       C  0.85423590  0.84011546  0.27454852    -0.16900
H1115       H  0.89758700  0.78093143  0.14754484     0.11200
H1116       H  0.89133453  0.80036616  0.18954190     0.10500
H1117       H  0.80967118  0.79639010  0.17962752     0.10400
H1118       H  0.81556668  0.77670616  0.13745162     0.10900
H1119       H  0.79534364  0.83373145  0.24746391     0.11000
H1120       H  0.78346072  0.86019752  0.28404732     0.11000
H1121       H  0.86239961  0.86164942  0.30853581     0.11100
H1122       H  0.87409488  0.83499888  0.27158147     0.09900
C1123       C  0.88334412  0.92544856  0.44900043    -0.03900
C1124       C  0.89095840  0.89989190  0.45247422    -0.09600
C1125       C  0.90576261  0.89299028  0.47367669    -0.17300
C1126       C  0.91323693  0.91155875  0.49144521     0.20100
C1127       C  0.90681846  0.93716880  0.48742177    -0.19000
C1128       C  0.89201631  0.94408690  0.46637382    -0.07900
C1129       C  0.92607158  0.90438133  0.51465099    -0.14300
C1130       C  0.93580814  0.89975420  0.53499272    -0.14000
C1131       C  0.94703674  0.89589587  0.55977285     0.24800
C1132       C  0.95585118  0.91694097  0.57369067    -0.19400
C1133       C  0.96721976  0.91344494  0.59757592    -0.07900
C1134       C  0.97000723  0.88876505  0.60790405    -0.04000
C1135       C  0.96067469  0.86771825  0.59391022    -0.09300
C1136       C  0.94924115  0.87129533  0.57001185    -0.16900
H1137       H  0.88453382  0.88510292  0.43950463     0.11200
H1138       H  0.91067850  0.87309795  0.47663806     0.10500
H1139       H  0.91257902  0.95171168  0.50099472     0.10400
H1140       H  0.88670077  0.96397124  0.46415583     0.10900
H1141       H  0.95418295  0.93607290  0.56594848     0.11000
H1142       H  0.97432177  0.93005487  0.60767096     0.11000
H1143       H  0.96252897  0.84845164  0.60123000     0.11100
H1144       H  0.94238092  0.85487402  0.55942334     0.09900
C1145       C  0.69506922  0.19670914  0.51724268    -0.03900
C1146       C  0.68726325  0.17971226  0.49789717    -0.09600
C1147       C  0.70275730  0.15923132  0.49073212    -0.17300
C1148       C  0.72634329  0.15529834  0.50267480     0.24900
C1149       C  0.73426336  0.17184624  0.52217184    -0.19000
C1150       C  0.71867022  0.19241016  0.52949533    -0.07900
C1151       C  0.74197040  0.13415737  0.49445530    -0.14300
C1152       C  0.75170221  0.11560237  0.48481496    -0.14000
C1153       C  0.75874786  0.09321445  0.47042746     0.24800
C1154       C  0.78230109  0.08096796  0.47405089    -0.19400
C1155       C  0.78855923  0.05932965  0.45950015    -0.07900
C1156       C  0.77131500  0.04981315  0.44111436    -0.04000
C1157       C  0.74763871  0.06220900  0.43792544    -0.09300
C1158       C  0.74147472  0.08367987  0.45242472    -0.16900
H1159       H  0.66916686  0.18225201  0.48815945     0.11200
H1160       H  0.69636991  0.14649174  0.47570145     0.10500
H1161       H  0.75248190  0.16895740  0.53158468     0.10400
H1162       H  0.72525310  0.20513862  0.54441973     0.10900
H1163       H  0.79580752  0.08815786  0.48799571     0.11000
H1164       H  0.80690767  0.05021202  0.46250262     0.11000
H1165       H  0.73379530  0.05540977  0.42412360     0.11100
H1166       H  0.72316343  0.09294106  0.44950930     0.09900
C1167       C  0.04966318  0.44482427  0.76810982    -0.03900
C1168       C  0.06243024  0.44162699  0.74461473    -0.09600
C1169       C  0.08376241  0.45643612  0.73852649    -0.17300
C1170       C  0.09284597  0.47475816  0.75570306     0.24900
C1171       C  0.08027398  0.47834766  0.77908790    -0.19000
C1172       C  0.05876019  0.46349893  0.78525920    -0.07900
C1173       C  0.11537554  0.48919034  0.74897801    -0.14300
C1174       C  0.13457591  0.49851870  0.74015674    -0.14000
C1175       C  0.15733256  0.50577298  0.72636160     0.24800
C1176       C  0.16715984  0.53068514  0.72749438    -0.19400
C1177       C  0.18876125  0.53734174  0.71297677    -0.07900
C1178       C  0.20061987  0.51913691  0.69706401    -0.04000
C1179       C  0.19060537  0.49415003  0.69634807    -0.09300
C1180       C  0.16922186  0.48758635  0.71083559    -0.16900
H1181       H  0.05603146  0.42756788  0.73084524     0.11200
H1182       H  0.09331083  0.45345729  0.72038429     0.10500
H1183       H  0.08715436  0.49246717  0.79256936     0.10400
H1184       H  0.04941729  0.46648585  0.80348117     0.10900
H1185       H  0.15801692  0.54497601  0.73936152     0.11000
H1186       H  0.19590462  0.55674498  0.71390292     0.11000
H1187       H  0.19920130  0.47955582  0.68444656     0.11100
H1188       H  0.16177902  0.46828385  0.70971011     0.09900
C1189       C  0.77929119  0.13777418  0.85770368    -0.03900
C1190       C  0.78877820  0.15194510  0.87855105    -0.09600
C1191       C  0.80093142  0.17547063  0.87466994    -0.17300
C1192       C  0.80380334  0.18523342  0.84994754     0.24900
C1193       C  0.79497987  0.17103402  0.82905093    -0.19000
C1194       C  0.78282433  0.14750539  0.83286355    -0.07900
C1195       C  0.81559157  0.20987500  0.84595677    -0.14300
C1196       C  0.82572712  0.23015922  0.84151639    -0.14000
C1197       C  0.83885087  0.25327087  0.83403601     0.24800
C1198       C  0.84327020  0.27309629  0.85152743    -0.19400
C1199       C  0.85750176  0.29466574  0.84421364    -0.07900
C1200       C  0.86757818  0.29659053  0.81931874    -0.04000
C1201       C  0.86229105  0.27683707  0.80176955    -0.09300
C1202       C  0.84810238  0.25544414  0.80908549    -0.16900
H1203       H  0.78640587  0.14511708  0.89793385     0.11200
H1204       H  0.80778667  0.18619947  0.89099152     0.10500
H1205       H  0.79718716  0.17831064  0.80979870     0.10400
H1206       H  0.77574170  0.13721712  0.81636733     0.10900
H1207       H  0.83620354  0.27164895  0.87093099     0.11000
H1208       H  0.86131353  0.30937789  0.85825260     0.11000
H1209       H  0.86965196  0.27755277  0.78244298     0.11100
H1210       H  0.84480262  0.24029247  0.79535859     0.09900
C1211       C  0.89189335  0.60914475  0.96968136    -0.03900
C1212       C  0.91657164  0.59862314  0.96713381    -0.09600
C1213       C  0.92009116  0.57482513  0.95532647    -0.17300
C1214       C  0.89906663  0.56115272  0.94588168     0.24900
C1215       C  0.87455069  0.57170575  0.94779961    -0.19000
C1216       C  0.87097141  0.59545859  0.95958176    -0.07900
C1217       C  0.90265480  0.53625946  0.93442185    -0.14300
C1218       C  0.90649362  0.51571077  0.92454374    -0.14000
C1219       C  0.91292727  0.49214685  0.91162849     0.24800
C1220       C  0.89380661  0.47547796  0.90289281    -0.19400
C1221       C  0.90029874  0.45401988  0.88813084    -0.07900
C1222       C  0.92599625  0.44916491  0.88174774    -0.04000
C1223       C  0.94507936  0.46541919  0.89161137    -0.09300
C1224       C  0.93858242  0.48666874  0.90641108    -0.16900
H1225       H  0.93311452  0.60851028  0.97470057     0.11200
H1226       H  0.93919775  0.56693810  0.95385501     0.10500
H1227       H  0.85812593  0.56143661  0.94045624     0.10400
H1228       H  0.85170560  0.60290163  0.96110958     0.10900
H1229       H  0.87385588  0.47950250  0.90678204     0.11000
H1230       H  0.88517133  0.44201659  0.88066279     0.11000
H1231       H  0.96506436  0.46218347  0.88718504     0.11100
H1232       H  0.95357182  0.49931868  0.91308642     0.09900
C1233       C  0.85946038  0.35668019  0.71865320    -0.03900
C1234       C  0.84468439  0.37740185  0.70985652    -0.09600
C1235       C  0.82066290  0.37327345  0.69896012    -0.17300
C1236       C  0.81111764  0.34842444  0.69666149     0.24900
C1237       C  0.82585854  0.32765225  0.70477266    -0.19000
C1238       C  0.84988937  0.33170959  0.71569304    -0.07900
C1239       C  0.78627505  0.34411345  0.68582337    -0.14300
C1240       C  0.76596853  0.33958442  0.67599648    -0.14000
C1241       C  0.74287901  0.33306173  0.66266809     0.24800
C1242       C  0.73667923  0.30735549  0.65880699    -0.19400
C1243       C  0.71585720  0.30080530  0.64346993    -0.07900
C1244       C  0.70086530  0.31992785  0.63193258    -0.04000
C1245       C  0.70658956  0.34572641  0.63675870    -0.09300
C1246       C  0.72761010  0.35224356  0.65195555    -0.16900
H1247       H  0.85141593  0.39687248  0.71186166     0.11200
H1248       H  0.80943452  0.38946941  0.69259550     0.10500
H1249       H  0.81863819  0.30832703  0.70293364     0.10400
H1250       H  0.86065000  0.31533773  0.72236487     0.10900
H1251       H  0.74841655  0.29237046  0.66697635     0.11000
H1252       H  0.71185609  0.28076973  0.64009492     0.11000
H1253       H  0.69558278  0.36080717  0.62782652     0.11100
H1254       H  0.73240503  0.37219947  0.65470888     0.09900
C1255       C  0.11744874  0.42953328  0.04543314    -0.03900
C1256       C  0.10883894  0.40431195  0.04173554    -0.09600
C1257       C  0.09416325  0.39800799  0.02021149    -0.17300
C1258       C  0.08782937  0.41683106  0.00223946     0.24900
C1259       C  0.09557714  0.44207582  0.00624538    -0.19000
C1260       C  0.11022641  0.44840000  0.02761674    -0.07900
C1261       C  0.07435545  0.41033788  0.97909990    -0.14300
C1262       C  0.06384658  0.40607102  0.95901085    -0.14000
C1263       C  0.05165495  0.40174326  0.93468015     0.24800
C1264       C  0.04196932  0.42236525  0.92065427    -0.19400
C1265       C  0.02971678  0.41817032  0.89725556    -0.07900
C1266       C  0.02692088  0.39321037  0.88753546    -0.04000
C1267       C  0.03710260  0.37265850  0.90163577    -0.09300
C1268       C  0.04938093  0.37692312  0.92499713    -0.16900
H1269       H  0.11416342  0.38931892  0.05495896     0.11200
H1270       H  0.08826250  0.37837654  0.01729829     0.10500
H1271       H  0.09076919  0.45682119  0.99252785     0.10400
H1272       H  0.11639226  0.46803662  0.02983685     0.10900
H1273       H  0.04367580  0.44168361  0.92791669     0.11000
H1274       H  0.02204813  0.43444477  0.88703068     0.11000
H1275       H  0.03533964  0.35321169  0.89478431     0.11100
H1276       H  0.05689415  0.36081920  0.93561826     0.09900
C1277       C  0.10835607  0.52884255  0.10852527    -0.03900
C1278       C  0.09940786  0.53397958  0.08368649    -0.09600
C1279       C  0.07561043  0.54566631  0.07997997    -0.17300
C1280       C  0.06044570  0.55241474  0.10099209     0.24900
C1281       C  0.06953187  0.54818377  0.12574472    -0.19000
C1282       C  0.09328930  0.53651884  0.12951514    -0.07900
C1283       C  0.03553486  0.56355574  0.09712881    -0.14300
C1284       C  0.01512978  0.57350710  0.09298416    -0.14000
C1285       C  0.99216734  0.58698934  0.08591292     0.24800
C1286       C  0.97383587  0.59388531  0.10423685    -0.19400
C1287       C  0.95285683  0.60912523  0.09728494    -0.07900
C1288       C  0.95014899  0.61771103  0.07193804    -0.04000
C1289       C  0.96827463  0.60986828  0.05361739    -0.09300
C1290       C  0.98903643  0.59466594  0.06055961    -0.16900
H1291       H  0.11047002  0.52841294  0.06710041     0.11200
H1292       H  0.06886008  0.54906342  0.06071137     0.10500
H1293       H  0.05807885  0.55353984  0.14215065     0.10400
H1294       H  0.09956285  0.53301681  0.14891127     0.10900
H1295       H  0.97611919  0.58808523  0.12396998     0.11000
H1296       H  0.93935964  0.61495638  0.11186234     0.11000
H1297       H  0.96677030  0.61597612  0.03390817     0.11100
H1298       H  0.00306338  0.58947103  0.04621828     0.09900
C1299       C  0.29737977  0.47908744  0.19644089    -0.03900
C1300       C  0.30670300  0.50432654  0.19709759    -0.09600
C1301       C  0.32810697  0.51061278  0.21171000    -0.17300
C1302       C  0.34071650  0.49188059  0.22597983     0.24900
C1303       C  0.33140498  0.46674061  0.22594050    -0.19000
C1304       C  0.30976579  0.46037902  0.21134307    -0.07900
C1305       C  0.36368403  0.49885466  0.23962593    -0.14300
C1306       C  0.38287640  0.50813120  0.24855484    -0.14000
C1307       C  0.40515139  0.52280456  0.25568987     0.24800
C1308       C  0.41765603  0.51900171  0.27907642    -0.19400
C1309       C  0.43886971  0.53411980  0.28565012    -0.07900
C1310       C  0.44776193  0.55324404  0.26888037    -0.04000
C1311       C  0.43492046  0.55681881  0.24550331    -0.09300
C1312       C  0.41390690  0.54174121  0.23901181    -0.16900
H1313       H  0.29759695  0.51929407  0.18608487     0.11200
H1314       H  0.33507903  0.53012020  0.21155867     0.10500
H1315       H  0.34103872  0.45203231  0.23686263     0.10400
H1316       H  0.30312415  0.44077568  0.21124540     0.10900
H1317       H  0.41097905  0.50447861  0.29222991     0.11000
H1318       H  0.44822338  0.53088937  0.30381656     0.11000
H1319       H  0.44109582  0.57129695  0.23206817     0.11100
H1320       H  0.40436283  0.54497241  0.22092373     0.09900
C1321       C  0.22649160  0.55516193  0.06086691    -0.03900
C1322       C  0.21237735  0.56080877  0.03861697    -0.09600
C1323       C  0.21809494  0.58250224  0.02399042    -0.17300
C1324       C  0.23787180  0.59889164  0.03146373     0.24900
C1325       C  0.25168969  0.59368234  0.05375940    -0.19000
C1326       C  0.24610381  0.57201120  0.06832858    -0.07900
C1327       C  0.24480689  0.62071618  0.01617313    -0.14300
C1328       C  0.25377156  0.63917297  0.00565797    -0.14000
C1329       C  0.26851475  0.66083028  0.99726001     0.24800
C1330       C  0.28910967  0.66858176  0.01232463    -0.19400
C1331       C  0.30418414  0.68916756  0.00490637    -0.07900
C1332       C  0.29902641  0.70251864  0.98211926    -0.04000
C1333       C  0.27817918  0.69471079  0.96696541    -0.09300
C1334       C  0.26297225  0.67390701  0.97453467    -0.16900
H1335       H  0.19715154  0.54828817  0.03229543     0.11200
H1336       H  0.20728016  0.58633405  0.00676315     0.10500
H1337       H  0.26702123  0.60626637  0.05976109     0.10400
H1338       H  0.25723738  0.56842864  0.08539463     0.10900
H1339       H  0.29362535  0.65858864  0.02989048     0.11000
H1340       H  0.32004459  0.69446850  0.01710789     0.11000
H1341       H  0.27370040  0.70456744  0.94933762     0.11100
H1342       H  0.24704992  0.66800203  0.96269195     0.09900
C1343       C  0.19513737  0.29922415  0.48154790    -0.03900
C1344       C  0.21082329  0.31186808  0.46368970    -0.09600
C1345       C  0.22567120  0.33292110  0.47117241    -0.17300
C1346       C  0.22510828  0.34136762  0.49657680     0.24900
C1347       C  0.21000210  0.32854062  0.51447781    -0.19000
C1348       C  0.19514071  0.30771307  0.50708130    -0.07900
C1349       C  0.23890954  0.36376905  0.50464404    -0.14300
C1350       C  0.24788715  0.38241139  0.51480722    -0.14000
C1351       C  0.25556238  0.40386929  0.53023884     0.24800
C1352       C  0.24349383  0.40789892  0.55375619    -0.19400
C1353       C  0.25034760  0.42869633  0.56899767    -0.07900
C1354       C  0.26950910  0.44582933  0.56097481    -0.04000
C1355       C  0.28171897  0.44151600  0.53737711    -0.09300
C1356       C  0.27471122  0.42069549  0.52206557    -0.16900
H1357       H  0.21123517  0.30582418  0.44391041     0.11200
H1358       H  0.23726491  0.34277573  0.45712918     0.10500
H1359       H  0.20940524  0.33490000  0.53417738     0.10400
H1360       H  0.18349747  0.29837230  0.52142884     0.10900
H1361       H  0.22866537  0.39497525  0.56029151     0.11000
H1362       H  0.24060820  0.43133533  0.58707418     0.11000
H1363       H  0.29642014  0.45441651  0.53058437     0.11100
H1364       H  0.28414521  0.41779063  0.50386807     0.09900
C1365       C  0.98005464  0.30757773  0.69552153    -0.03900
C1366       C  0.00116367  0.31404676  0.68012210    -0.09600
C1367       C  0.00853501  0.29836394  0.65989149    -0.17300
C1368       C  0.99504791  0.27591340  0.65463406     0.24900
C1369       C  0.97379471  0.26932837  0.66954253    -0.19000
C1370       C  0.96628936  0.28509947  0.68987888    -0.07900
C1371       C  0.00369822  0.25992165  0.63401079    -0.14300
C1372       C  0.01406456  0.24958571  0.61622398    -0.14000
C1373       C  0.02933729  0.24142095  0.59487319     0.24800
C1374       C  0.02110588  0.22187163  0.57855557    -0.19400
C1375       C  0.03566074  0.21538841  0.55701271    -0.07900
C1376       C  0.05852845  0.22852984  0.55156422    -0.04000
C1377       C  0.06673488  0.24786032  0.56839296    -0.09300
C1378       C  0.05227276  0.25419000  0.58983930    -0.16900
H1379       H  0.01218245  0.33118601  0.68377328     0.11200
H1380       H  0.02497338  0.30367128  0.64843147     0.10500
H1381       H  0.96319923  0.25197524  0.66560696     0.10400
H1382       H  0.95000062  0.27950801  0.70137772     0.10900
H1383       H  0.00332708  0.21191109  0.58227835     0.11000
H1384       H  0.02883510  0.20041913  0.54446248     0.11000
H1385       H  0.08431973  0.25826293  0.56497048     0.11100
H1386       H  0.05882448  0.26935695  0.60233500     0.09900
C1387       C  0.88980019  0.02838000  0.39159199    -0.03900
C1388       C  0.90531330  0.03574657  0.37083282    -0.09600
C1389       C  0.92891999  0.04763722  0.37489935    -0.17300
C1390       C  0.93745314  0.05248870  0.39973432     0.24900
C1391       C  0.92176094  0.04624448  0.42053736    -0.19000
C1392       C  0.89810637  0.03425966  0.41652858    -0.07900
C1393       C  0.96247633  0.06343549  0.40377416    -0.14300
C1394       C  0.98315289  0.07305680  0.40748031    -0.14000
C1395       C  0.00653854  0.08630249  0.41369295     0.24800
C1396       C  0.01051286  0.09427482  0.43883139    -0.19400
C1397       C  0.03140557  0.10967013  0.44488025    -0.07900
C1398       C  0.04881444  0.11746826  0.42585021    -0.04000
C1399       C  0.04541637  0.10840862  0.40075724    -0.09300
C1400       C  0.02431581  0.09293031  0.39471395    -0.16900
H1401       H  0.89958136  0.03168506  0.35138172     0.11200
H1402       H  0.94075737  0.05258733  0.35864051     0.10500
H1403       H  0.92803213  0.05015593  0.43987369     0.10400
H1404       H  0.88665042  0.02905804  0.43296652     0.10900
H1405       H  0.99696790  0.08926133  0.45368713     0.11000
H1406       H  0.03347895  0.11605262  0.46445277     0.11000
H1407       H  0.05841367  0.11408925  0.38567494     0.11100
H1408       H  0.02143239  0.08684325  0.37514682     0.09900
C1409       C  0.14060446  0.27855739  0.35785346    -0.03900
C1410       C  0.11946968  0.28564447  0.34268110    -0.09600
C1411       C  0.12302706  0.29668114  0.31856914    -0.17300
C1412       C  0.14772545  0.30091343  0.30915211     0.24900
C1413       C  0.16887616  0.29447166  0.32429198    -0.19000
C1414       C  0.16537973  0.28338992  0.34843135    -0.07900
C1415       C  0.15138736  0.31186922  0.28402098    -0.14300
C1416       C  0.15521712  0.32153043  0.26335443    -0.14000
C1417       C  0.16157725  0.33429348  0.23965746     0.24800
C1418       C  0.18728938  0.33785369  0.23314347    -0.19400
C1419       C  0.19391131  0.35264530  0.21190918    -0.07900
C1420       C  0.17489908  0.36407776  0.19666995    -0.04000
C1421       C  0.14904984  0.35930814  0.20247408    -0.09300
C1422       C  0.14244029  0.34462351  0.22395040    -0.16900
H1423       H  0.10010618  0.28223404  0.34919950     0.11200
H1424       H  0.10647891  0.30167143  0.30716066     0.10500
H1425       H  0.18811271  0.29775481  0.31731788     0.10400
H1426       H  0.18209083  0.27817005  0.35947321     0.10900
H1427       H  0.20229354  0.32993926  0.24502336     0.11000
H1428       H  0.21398781  0.35585950  0.20789805     0.11000
H1429       H  0.13400039  0.36804940  0.19126578     0.11100
H1430       H  0.12244997  0.34205786  0.22876784     0.09900
C1431       C  0.07013758  0.95037878  0.61543294    -0.03900
C1432       C  0.09574118  0.95422951  0.60803113    -0.09600
C1433       C  0.10278415  0.97623745  0.59438803    -0.17300
C1434       C  0.08433252  0.99456161  0.58785483     0.24900
C1435       C  0.05870285  0.99030599  0.59419054    -0.19000
C1436       C  0.05163877  0.96843544  0.60776800    -0.07900
C1437       C  0.09147848  0.01811523  0.57532235    -0.14300
C1438       C  0.09593902  0.03835920  0.56510192    -0.14000
C1439       C  0.09991003  0.06271348  0.55268805     0.24800
C1440       C  0.07919099  0.07568271  0.54175633    -0.19400
C1441       C  0.08296490  0.09900243  0.52916770    -0.07900
C1442       C  0.10761384  0.10972864  0.52724644    -0.04000
C1443       C  0.12826574  0.09668453  0.53861640    -0.09300
C1444       C  0.12441964  0.07340026  0.55124562    -0.16900
H1445       H  0.11047008  0.94084554  0.61371798     0.11200
H1446       H  0.12269425  0.97926237  0.58951139     0.10500
H1447       H  0.04420331  0.00422110  0.58915685     0.10400
H1448       H  0.03171922  0.96611985  0.61298202     0.10900
H1449       H  0.06011748  0.06763446  0.54274141     0.11000
H1450       H  0.06664191  0.10835872  0.52053064     0.11000
H1451       H  0.14748481  0.10433225  0.53754998     0.11100
H1452       H  0.14061819  0.06362276  0.55966718     0.09900
C1453       C  0.42718950  0.04825698  0.11746964    -0.03900
C1454       C  0.40164305  0.04402436  0.11021017    -0.09600
C1455       C  0.39521309  0.02276458  0.09522574    -0.17300
C1456       C  0.41425422  0.00568968  0.08718349     0.24900
C1457       C  0.43978932  0.01032617  0.09355297    -0.19000
C1458       C  0.44623291  0.03141229  0.10853457    -0.07900
C1459       C  0.40772897  0.98269518  0.07350881    -0.14300
C1460       C  0.40335033  0.96261355  0.06303785    -0.14000
C1461       C  0.39863851  0.93816640  0.05123052     0.24800
C1462       C  0.41835388  0.92015308  0.04912137    -0.19400
C1463       C  0.41384577  0.89653841  0.03732329    -0.07900
C1464       C  0.38946932  0.89059114  0.02751806    -0.04000
C1465       C  0.36968159  0.90868532  0.03026843    -0.09300
C1466       C  0.37427419  0.93227799  0.04193970    -0.16900
H1467       H  0.38655226  0.05648769  0.11697058     0.11200
H1468       H  0.37535130  0.01930085  0.09046316     0.10500
H1469       H  0.45468748  0.99727435  0.08746120     0.10400
H1470       H  0.46611770  0.03413438  0.11367878     0.10900
H1471       H  0.43727453  0.92444954  0.05639436     0.11000
H1472       H  0.42950497  0.88310070  0.03562008     0.11000
H1473       H  0.35070476  0.90486982  0.02292068     0.11100
H1474       H  0.35884045  0.94600740  0.04353640     0.09900
C1475       C  0.35817393  0.14285381  0.27661513    -0.03900
C1476       C  0.34819948  0.16774913  0.27900955    -0.09600
C1477       C  0.32402710  0.17174121  0.28986654    -0.17300
C1478       C  0.30949550  0.15097346  0.29853527     0.24900
C1479       C  0.31948792  0.12624170  0.29677383    -0.19000
C1480       C  0.34359189  0.12218543  0.28589582    -0.07900
C1481       C  0.28443736  0.15505596  0.30938492    -0.14300
C1482       C  0.26395327  0.15928707  0.31920537    -0.14000
C1483       C  0.24082371  0.16632834  0.33250657     0.24800
C1484       C  0.22267325  0.14788420  0.33954447    -0.19400
C1485       C  0.20163993  0.15474867  0.35472599    -0.07900
C1486       C  0.19868343  0.18011381  0.36319595    -0.04000
C1487       C  0.21649810  0.19862099  0.35509150    -0.09300
C1488       C  0.23733640  0.19175938  0.33989072    -0.16900
H1489       H  0.35879424  0.18409539  0.27199641     0.11200
H1490       H  0.31656365  0.19100920  0.29125953     0.10500
H1491       H  0.30853640  0.11003316  0.30358205     0.10400
H1492       H  0.35062798  0.10277644  0.28443698     0.10900
H1493       H  0.22518027  0.12810156  0.33397739     0.11000
H1494       H  0.18838749  0.14003024  0.36076594     0.11000
H1495       H  0.21478925  0.21834510  0.36113852     0.11100
H1496       H  0.25120179  0.20620421  0.33455616     0.09900
C1497       C  0.36724501  0.20097555  0.17653818    -0.03900
C1498       C  0.36026581  0.20510540  0.15090196    -0.09600
C1499       C  0.34535614  0.22637313  0.14416376    -0.17300
C1500       C  0.33706871  0.24359349  0.16296181     0.24900
C1501       C  0.34313022  0.23902695  0.18857730    -0.19000
C1502       C  0.35807693  0.21795008  0.19531901    -0.07900
C1503       C  0.32346884  0.26663377  0.15610852    -0.14300
C1504       C  0.31299233  0.28673252  0.15158579    -0.14000
C1505       C  0.30107388  0.31129091  0.14735960     0.24800
C1506       C  0.29437143  0.31906239  0.12266395    -0.19400
C1507       C  0.28255645  0.34276813  0.11872699    -0.07900
C1508       C  0.27713109  0.35907139  0.13949054    -0.04000
C1509       C  0.28431334  0.35120892  0.16419516    -0.09300
C1510       C  0.29620488  0.32754468  0.16805564    -0.16900
H1511       H  0.36717125  0.19252860  0.13598444     0.11200
H1512       H  0.34083207  0.22972137  0.12425129     0.10500
H1513       H  0.33682933  0.25213086  0.20332486     0.10400
H1514       H  0.36295586  0.21527029  0.21524871     0.10900
H1515       H  0.29808365  0.30671737  0.10646194     0.11000
H1516       H  0.27722076  0.34807462  0.09945863     0.11000
H1517       H  0.28048127  0.36319722  0.18061837     0.11100
H1518       H  0.30140277  0.32182434  0.18725441     0.09900
C1519       C  0.52660123  0.10577151  0.10905044    -0.03900
C1520       C  0.53316187  0.08075169  0.10157813    -0.09600
C1521       C  0.54556329  0.07632555  0.07827819    -0.17300
C1522       C  0.55147603  0.09678423  0.06206903     0.24900
C1523       C  0.54523348  0.12171107  0.06938671    -0.19000
C1524       C  0.53289848  0.12620212  0.09265969    -0.07900
C1525       C  0.56354430  0.09222795  0.03774510    -0.14300
C1526       C  0.57364674  0.08817652  0.01742034    -0.14000
C1527       C  0.58648601  0.08211536  0.99384507     0.24800
C1528       C  0.59253484  0.10128792  0.97612333    -0.19400
C1529       C  0.60702751  0.09542337  0.95434294    -0.07900
C1530       C  0.61569795  0.07031266  0.95022444    -0.04000
C1531       C  0.60837130  0.05103854  0.96756326    -0.09300
C1532       C  0.59398651  0.05693056  0.98919625    -0.16900
H1533       H  0.52853947  0.06456545  0.11361198     0.11200
H1534       H  0.55031651  0.05692666  0.07280354     0.10500
H1535       H  0.54968944  0.13768382  0.05698464     0.10400
H1536       H  0.52800229  0.14568675  0.09762070     0.10900
H1537       H  0.58671574  0.12086371  0.97952356     0.11000
H1538       H  0.61238724  0.11067001  0.94141728     0.11000
H1539       H  0.61447801  0.03143635  0.96489545     0.11100
H1540       H  0.58931909  0.04191648  0.00267571     0.09900
C1541       C  0.56000810  0.27056592  0.44493219    -0.03900
C1542       C  0.56422673  0.24755894  0.43165221    -0.09600
C1543       C  0.55028758  0.24176103  0.40974446    -0.17300
C1544       C  0.53185257  0.25877007  0.40059433     0.24900
C1545       C  0.52719737  0.28166858  0.41367730    -0.19000
C1546       C  0.54118797  0.28755747  0.43578633    -0.07900
C1547       C  0.51807827  0.25213643  0.37773581    -0.14300
C1548       C  0.50883037  0.24288437  0.35876998    -0.14000
C1549       C  0.50067803  0.22783821  0.33724047     0.24800
C1550       C  0.47786144  0.23319674  0.32427475    -0.19400
C1551       C  0.46977422  0.21736146  0.30420923    -0.07900
C1552       C  0.48448168  0.19599911  0.29695442    -0.04000
C1553       C  0.50746247  0.19102299  0.31009871    -0.09300
C1554       C  0.51544486  0.20679895  0.32999577    -0.16900
H1555       H  0.57837565  0.23391279  0.43813416     0.11200
H1556       H  0.55397904  0.22394017  0.39985102     0.10500
H1557       H  0.51287867  0.29494140  0.40677867     0.10400
H1558       H  0.53738862  0.30538987  0.44557882     0.10900
H1559       H  0.46623788  0.24941260  0.32981648     0.11000
H1560       H  0.45203237  0.22176626  0.29449812     0.11000
H1561       H  0.51933886  0.17480330  0.30514964     0.11100
H1562       H  0.53307700  0.20239031  0.33995165     0.09900
C1563       C  0.69916271  0.97887044  0.30470958    -0.03900
C1564       C  0.69225543  0.96441212  0.28306287    -0.09600
C1565       C  0.67071208  0.97115784  0.26850043    -0.17300
C1566       C  0.65584206  0.99235678  0.27545484     0.24900
C1567       C  0.66255784  0.00667594  0.29696128    -0.19000
C1568       C  0.68395384  0.00007305  0.31141343    -0.07900
C1569       C  0.63373846  0.00008697  0.26085685    -0.14300
C1570       C  0.61503404  0.00984691  0.25144538    -0.14000
C1571       C  0.59307586  0.02476578  0.24388589     0.24800
C1572       C  0.58285312  0.04233300  0.26122939    -0.19400
C1573       C  0.56208817  0.05759692  0.25434804    -0.07900
C1574       C  0.55096864  0.05554848  0.22991779    -0.04000
C1575       C  0.56133289  0.03779168  0.21251363    -0.09300
C1576       C  0.58231487  0.02253474  0.21946063    -0.16900
H1577       H  0.70349905  0.94799737  0.27735188     0.11200
H1578       H  0.66570896  0.95990933  0.25186544     0.10500
H1579       H  0.65122619  0.02309082  0.30257714     0.10400
H1580       H  0.68849204  0.01165505  0.32794696     0.10900
H1581       H  0.59104476  0.04434133  0.28014074     0.11000
H1582       H  0.55469377  0.07096083  0.26831733     0.11000
H1583       H  0.55334011  0.03578527  0.19354189     0.11100
H1584       H  0.59016592  0.00911163  0.20579379     0.09900
loop_ 
_geom_bond_atom_site_label_1 
_geom_bond_atom_site_label_2 
_geom_bond_distance 
_geom_bond_site_symmetry_2 
_ccdc_geom_bond_type 
Zr1           O2   2.438       .  S
Zr1           O3   2.436       .  S
Zr1           O4   2.428       .  S
Zr1           O7   2.444       .  S
Zr1           O9   2.380       .  S
Zr1          O10   2.380       .  S
Zr1          O11   2.411       .  S
Zr1          O12   2.401       .  S
O2           H58   0.990       .  S
O2           H66   0.990       .  S
O3           C23   1.285       .  A
O4           C25   1.284       .  A
O5          Zr15   2.411       .  S
O5           C24   1.282       .  A
O6          Zr14   2.454       .  S
O6           C25   1.289       .  A
O7           C24   1.287       .  A
O8          Zr16   2.426       .  S
O8           C23   1.283       .  A
O9          Zr14   2.392       .  S
O9          Zr16   2.373       .  S
O10         Zr15   2.390       .  S
O10         Zr16   2.370       .  S
O10          H45   0.967       .  S
O11         Zr14   2.409       .  S
O11         Zr31   2.387       .  S
O11          H48   0.965       .  S
O12         Zr15   2.392       .  S
O12         Zr31   2.396       .  S
Zr13         O38   2.444       .  S
Zr13         O32   2.436       .  S
Zr13         O40   2.447       .  S
Zr13         O28   2.407       .  S
Zr13         O19   2.399       .  S
Zr13         O20   2.411       .  S
Zr13         O21   2.380       .  S
Zr13         O22   2.375       .  S
Zr14         O33   2.436       .  S
Zr14         O26   2.435       .  S
Zr14         O27   2.456       .  S
Zr14         O20   2.403       .  S
Zr14         O21   2.388       .  S
Zr15         O17   2.436       .  S
Zr15         O39   2.435       .  S
Zr15         O41   2.424       .  S
Zr15         O19   2.380       .  S
Zr15         O22   2.388       .  S
Zr16         O42   2.436       .  S
Zr16         O43   2.434       .  S
Zr16         O18   2.434       .  S
Zr16         O19   2.401       .  S
Zr16         O20   2.394       .  S
O17          H54   0.990       .  S
O18          H49   0.990       .  S
O18          H63   0.990       .  S
O20          H46   0.966       .  S
O21         Zr31   2.371       .  S
O22         Zr31   2.375       .  S
O22          H47   0.965       .  S
C23        C1475   1.487       .  S
C24        C1552   1.485       .  S
C25        C1497   1.485       .  S
O26          H62   0.990       .  S
O27          C29   1.290       .  A
O28          C29   1.282       .  A
C29        C1453   1.481       .  S
O30         Zr31   2.439       .  S
O30          H59   0.990       .  S
Zr31         O34   2.437       .  S
Zr31         O35   2.438       .  S
Zr31         O36   2.428       .  S
O32          C37   1.286       .  A
O33          H50   0.990       .  S
O33          H65   0.990       .  S
O34          H51   0.990       .  S
O35          H55   0.990       .  S
O35          H64   0.990       .  S
O36          C37   1.284       .  A
C37        C1519   1.487       .  S
O38          H57   0.990       .  S
O38          H61   0.990       .  S
O39          H53   0.990       .  S
O39          H60   0.990       .  S
O40          C44   1.287       .  A
O41          C44   1.284       .  A
O42          H52   0.990       .  S
O43          H56   0.990       .  S
C44        C1574   1.488       .  S
Zr67         O68   2.438       .  S
Zr67         O69   2.431       .  S
Zr67         O70   2.416       .  S
Zr67         O73   2.437       .  S
Zr67         O75   2.380       .  S
Zr67         O76   2.377       .  S
Zr67         O77   2.407       .  S
Zr67         O78   2.400       .  S
O68         H124   0.990       .  S
O68         H132   0.990       .  S
O69          C89   1.284       .  A
O70          C91   1.282       .  A
O71         Zr81   2.415       .  S
O71          C90   1.282       .  A
O72         Zr80   2.453       .  S
O72          C91   1.288       .  A
O73          C90   1.286       .  A
O74         Zr82   2.435       .  S
O74          C89   1.284       .  A
O75         Zr80   2.395       .  S
O75         Zr82   2.375       .  S
O76         Zr81   2.391       .  S
O76         Zr82   2.366       .  S
O76         H111   0.966       .  S
O77         Zr80   2.407       .  S
O77         Zr97   2.392       .  S
O77         H114   0.964       .  S
O78         Zr81   2.388       .  S
O78         Zr97   2.401       .  S
Zr79        O104   2.445       .  S
Zr79         O98   2.442       .  S
Zr79        O106   2.445       .  S
Zr79         O94   2.417       .  S
Zr79         O85   2.401       .  S
Zr79         O86   2.410       .  S
Zr79         O87   2.377       .  S
Zr79         O88   2.377       .  S
Zr80         O99   2.436       .  S
Zr80         O92   2.434       .  S
Zr80         O93   2.451       .  S
Zr80         O86   2.402       .  S
Zr80         O87   2.387       .  S
Zr81         O83   2.434       .  S
Zr81        O105   2.437       .  S
Zr81        O107   2.414       .  S
Zr81         O85   2.387       .  S
Zr81         O88   2.388       .  S
Zr82        O108   2.436       .  S
Zr82        O109   2.435       .  S
Zr82         O84   2.436       .  S
Zr82         O85   2.400       .  S
Zr82         O86   2.397       .  S
O83         H120   0.990       .  S
O84         H115   0.990       .  S
O84         H129   0.990       .  S
O86         H112   0.966       .  S
O87         Zr97   2.371       .  S
O88         Zr97   2.375       .  S
O88         H113   0.965       .  S
C89        C1442   1.489       .  S
C90        C1376   1.482       .  S
C91        C1398   1.485       .  S
O92         H128   0.990       .  S
O93          C95   1.289       .  A
O94          C95   1.283       .  A
C95        C1486   1.484       .  S
O96         Zr97   2.439       .  S
O96         H125   0.990       .  S
Zr97        O100   2.437       .  S
Zr97        O101   2.440       .  S
Zr97        O102   2.428       .  S
O98         C103   1.287       .  A
O99         H116   0.990       .  S
O99         H131   0.990       .  S
O100        H117   0.990       .  S
O101        H121   0.990       .  S
O101        H130   0.990       .  S
O102        C103   1.284       .  A
C103       C1409   1.491       .  S
O104        H123   0.990       .  S
O104        H127   0.990       .  S
O105        H119   0.990       .  S
O105        H126   0.990       .  S
O106        C110   1.287       .  A
O107        C110   1.283       .  A
O108        H118   0.990       .  S
O109        H122   0.990       .  S
C110       C1343   1.483       .  S
Zr133       O134   2.440       .  S
Zr133       O135   2.437       .  S
Zr133       O136   2.425       .  S
Zr133       O139   2.444       .  S
Zr133       O141   2.379       .  S
Zr133       O142   2.379       .  S
Zr133       O143   2.409       .  S
Zr133       O144   2.405       .  S
O134        H190   0.991       .  S
O134        H198   0.990       .  S
O135        C155   1.285       .  A
O136        C157   1.284       .  A
O137       Zr147   2.427       .  S
O137        C156   1.285       .  A
O138       Zr146   2.457       .  S
O138        C157   1.290       .  A
O139        C156   1.287       .  A
O140       Zr148   2.432       .  S
O140        C155   1.284       .  A
O141       Zr146   2.393       .  S
O141       Zr148   2.372       .  S
O142       Zr147   2.396       .  S
O142       Zr148   2.373       .  S
O142        H177   0.967       .  S
O143       Zr146   2.406       .  S
O143       Zr163   2.389       .  S
O143        H180   0.965       .  S
O144       Zr147   2.392       .  S
O144       Zr163   2.400       .  S
Zr145       O170   2.445       .  S
Zr145       O164   2.436       .  S
Zr145       O172   2.433       .  S
Zr145       O160   2.416       .  S
Zr145       O151   2.399       .  S
Zr145       O152   2.406       .  S
Zr145       O153   2.380       .  S
Zr145       O154   2.377       .  S
Zr146       O165   2.434       .  S
Zr146       O158   2.435       .  S
Zr146       O159   2.457       .  S
Zr146       O152   2.401       .  S
Zr146       O153   2.391       .  S
Zr147       O149   2.436       .  S
Zr147       O171   2.436       .  S
Zr147       O173   2.440       .  S
Zr147       O151   2.386       .  S
Zr147       O154   2.386       .  S
Zr148       O174   2.437       .  S
Zr148       O175   2.435       .  S
Zr148       O150   2.437       .  S
Zr148       O151   2.402       .  S
Zr148       O152   2.390       .  S
O149        H186   0.990       .  S
O150        H181   0.990       .  S
O150        H195   0.990       .  S
O152        H178   0.966       .  S
O153       Zr163   2.375       .  S
O154       Zr163   2.373       .  S
O154        H179   0.964       .  S
C155       C1508   1.489       .  S
C156       C1299   1.487       .  S
C157       C1420   1.485       .  S
O158        H194   0.990       .  S
O159        C161   1.290       .  A
O160        C161   1.283       .  A
C161       C1255   1.486       .  S
O162       Zr163   2.439       .  S
O162        H191   0.991       .  S
Zr163       O166   2.438       .  S
Zr163       O167   2.442       .  S
Zr163       O168   2.425       .  S
O164        C169   1.286       .  A
O165        H182   0.990       .  S
O165        H197   0.990       .  S
O166        H183   0.990       .  S
O167        H187   0.990       .  S
O167        H196   0.990       .  S
O168        C169   1.283       .  A
C169       C1277   1.486       .  S
O170        H189   0.990       .  S
O170        H193   0.990       .  S
O171        H185   0.990       .  S
O171        H192   0.990       .  S
O172        C176   1.285       .  A
O173        C176   1.287       .  A
O174        H184   0.990       .  S
O175        H188   0.990       .  S
C176       C1321   1.487       .  S
Zr199       O200   2.438       .  S
Zr199       O201   2.429   1_655  S
Zr199       O202   2.419       .  S
Zr199       O205   2.444   1_655  S
Zr199       O207   2.382       .  S
Zr199       O208   2.376   1_655  S
Zr199       O209   2.409       .  S
Zr199       O210   2.397       .  S
O200        H256   0.990       .  S
O200        H264   0.990       .  S
O201        C221   1.284       .  A
O202        C223   1.283       .  A
O203       Zr213   2.423   1_455  S
O203        C222   1.284       .  A
O204       Zr212   2.461       .  S
O204        C223   1.291       .  A
O205        C222   1.287       .  A
O206       Zr214   2.432   1_455  S
O206        C221   1.285       .  A
O207       Zr212   2.393       .  S
O207       Zr214   2.374       .  S
O208       Zr213   2.390   1_455  S
O208       Zr214   2.368   1_455  S
O208        H243   0.967       .  S
O209       Zr212   2.406       .  S
O209       Zr229   2.389       .  S
O209        H246   0.966       .  S
O210       Zr213   2.386       .  S
O210       Zr229   2.398       .  S
Zr211       O236   2.447       .  S
Zr211       O230   2.424       .  S
Zr211       O238   2.438       .  S
Zr211       O226   2.423       .  S
Zr211       O217   2.400       .  S
Zr211       O218   2.406       .  S
Zr211       O219   2.382       .  S
Zr211       O220   2.382       .  S
Zr212       O231   2.438       .  S
Zr212       O224   2.433       .  S
Zr212       O225   2.459       .  S
Zr212       O218   2.403       .  S
Zr212       O219   2.390       .  S
Zr213       O215   2.435       .  S
Zr213       O237   2.438   1_655  S
Zr213       O239   2.426       .  S
Zr213       O217   2.388       .  S
Zr213       O220   2.390       .  S
Zr214       O240   2.434   1_655  S
Zr214       O241   2.436       .  S
Zr214       O216   2.436       .  S
Zr214       O217   2.399       .  S
Zr214       O218   2.390       .  S
O215        H252   0.990   1_655  S
O216        H247   0.990       .  S
O216        H261   0.990       .  S
O218        H244   0.966       .  S
O219       Zr229   2.375       .  S
O220       Zr229   2.374       .  S
O220        H245   0.968       .  S
C221       C1266   1.487       .  S
C222       C1167   1.488       .  S
C223       C1222   1.485       .  S
O224        H260   0.990       .  S
O225        C227   1.290       .  A
O226        C227   1.284       .  A
C227       C1200   1.490       .  S
O228       Zr229   2.439       .  S
O228        H257   0.990       .  S
Zr229       O232   2.439       .  S
Zr229       O233   2.439       .  S
Zr229       O234   2.423       .  S
O230        C235   1.283       .  A
O231        H248   0.990       .  S
O231        H263   0.990       .  S
O232        H249   0.990       .  S
O233        H253   0.990       .  S
O233        H262   0.990       .  S
O234        C235   1.283       .  A
C235       C1233   1.480       .  S
O236        H255   0.990       .  S
O236        H259   0.990       .  S
O237        H251   0.990       .  S
O237        H258   0.990       .  S
O238        C242   1.286       .  A
O239        C242   1.285       .  A
O240        H250   0.990       .  S
O241        H254   0.990       .  S
C242       C1365   1.485       .  S
Zr265       O266   2.440       .  S
Zr265       O267   2.444       .  S
Zr265       O268   2.422       .  S
Zr265       O271   2.448       .  S
Zr265       O273   2.382       .  S
Zr265       O274   2.378       .  S
Zr265       O275   2.414       .  S
Zr265       O276   2.405       .  S
O266        H322   0.991       .  S
O266        H330   0.990       .  S
O267        C287   1.287       .  A
O268        C289   1.283       .  A
O269       Zr279   2.418       .  S
O269        C288   1.284       .  A
O270       Zr278   2.450       .  S
O270        C289   1.288       .  A
O271        C288   1.288       .  A
O272       Zr280   2.426       .  S
O272        C287   1.283       .  A
O273       Zr278   2.394       .  S
O273       Zr280   2.376       .  S
O274       Zr279   2.391       .  S
O274       Zr280   2.371       .  S
O274        H309   0.967       .  S
O275       Zr278   2.402       .  S
O275       Zr295   2.398       .  S
O275        H312   0.966       .  S
O276       Zr279   2.389       .  S
O276       Zr295   2.403       .  S
Zr277       O302   2.443       .  S
Zr277       O296   2.432   1_565  S
Zr277       O304   2.432   1_565  S
Zr277       O292   2.417       .  S
Zr277       O283   2.397       .  S
Zr277       O284   2.406       .  S
Zr277       O285   2.381       .  S
Zr277       O286   2.378       .  S
Zr278       O297   2.435       .  S
Zr278       O290   2.434       .  S
Zr278       O291   2.447       .  S
Zr278       O284   2.403       .  S
Zr278       O285   2.388       .  S
Zr279       O281   2.434   1_565  S
Zr279       O303   2.436       .  S
Zr279       O305   2.427   1_565  S
Zr279       O283   2.384       .  S
Zr279       O286   2.386       .  S
Zr280       O306   2.437       .  S
Zr280       O307   2.436       .  S
Zr280       O282   2.436       .  S
Zr280       O283   2.394       .  S
Zr280       O284   2.390       .  S
O281        H318   0.990       .  S
O282        H313   0.990       .  S
O282        H327   0.990       .  S
O284        H310   0.966       .  S
O285       Zr295   2.374       .  S
O286       Zr295   2.370       .  S
O286        H311   0.967   1_565  S
C287       C1079   1.490       .  S
C288       C1563   1.488       .  S
C289       C1112   1.484       .  S
O290        H326   0.990       .  S
O291        C293   1.288       .  A
O292        C293   1.283       .  A
C293       C1123   1.481       .  S
O294       Zr295   2.439       .  S
O294        H323   0.990   1_565  S
Zr295       O298   2.437       .  S
Zr295       O299   2.441   1_565  S
Zr295       O300   2.438   1_565  S
O296        C301   1.285       .  A
O297        H314   0.990       .  S
O297        H329   0.990       .  S
O298        H315   0.990       .  S
O299        H319   0.990       .  S
O299        H328   0.990       .  S
O300        C301   1.286       .  A
C301       C1387   1.490       .  S
O302        H321   0.990       .  S
O302        H325   0.990       .  S
O303        H317   0.990       .  S
O303        H324   0.990   1_565  S
O304        C308   1.285       .  A
O305        C308   1.285       .  A
O306        H316   0.990       .  S
O307        H320   0.990       .  S
C308       C1156   1.484       .  S
Zr331       O332   2.440       .  S
Zr331       O333   2.439       .  S
Zr331       O334   2.414       .  S
Zr331       O337   2.432       .  S
Zr331       O339   2.380       .  S
Zr331       O340   2.377       .  S
Zr331       O341   2.407       .  S
Zr331       O342   2.403       .  S
O332        H388   0.990       .  S
O332        H396   0.990       .  S
O333        C353   1.286       .  A
O334        C355   1.282       .  A
O335       Zr345   2.429       .  S
O335        C354   1.286       .  A
O336       Zr344   2.467       .  S
O336        C355   1.292       .  A
O337        C354   1.285       .  A
O338       Zr346   2.425       .  S
O338        C353   1.283       .  A
O339       Zr344   2.395       .  S
O339       Zr346   2.375       .  S
O340       Zr345   2.392       .  S
O340       Zr346   2.370       .  S
O340        H375   0.966       .  S
O341       Zr344   2.402       .  S
O341       Zr361   2.387       .  S
O341        H378   0.965       .  S
O342       Zr345   2.388       .  S
O342       Zr361   2.400       .  S
Zr343       O368   2.444       .  S
Zr343       O362   2.430   1_455  S
Zr343       O370   2.445   1_455  S
Zr343       O358   2.417       .  S
Zr343       O349   2.395       .  S
Zr343       O350   2.406       .  S
Zr343       O351   2.382       .  S
Zr343       O352   2.378   1_455  S
Zr344       O363   2.435       .  S
Zr344       O356   2.434       .  S
Zr344       O357   2.463       .  S
Zr344       O350   2.408       .  S
Zr344       O351   2.389       .  S
Zr345       O347   2.436   1_455  S
Zr345       O369   2.435       .  S
Zr345       O371   2.429   1_455  S
Zr345       O349   2.388       .  S
Zr345       O352   2.390   1_455  S
Zr346       O372   2.437       .  S
Zr346       O373   2.435       .  S
Zr346       O348   2.436       .  S
Zr346       O349   2.399       .  S
Zr346       O350   2.387       .  S
O347        H384   0.990       .  S
O348        H379   0.990       .  S
O348        H393   0.990       .  S
O350        H376   0.965       .  S
O351       Zr361   2.374       .  S
O352       Zr361   2.374   1_655  S
O352        H377   0.965       .  S
C353       C1068   1.489       .  S
C354       C1002   1.485       .  S
C355       C1035   1.488       .  S
O356        H392   0.990       .  S
O357        C359   1.292       .  A
O358        C359   1.283       .  A
C359       C1431   1.488       .  S
O360       Zr361   2.438       .  S
O360        H389   0.990   1_455  S
Zr361       O364   2.438       .  S
Zr361       O365   2.440   1_455  S
Zr361       O366   2.428   1_455  S
O362        C367   1.285       .  A
O363        H380   0.990       .  S
O363        H395   0.990       .  S
O364        H381   0.990       .  S
O365        H385   0.990       .  S
O365        H394   0.990       .  S
O366        C367   1.283       .  A
C367       C1134   1.484       .  S
O368        H387   0.990       .  S
O368        H391   0.990       .  S
O369        H383   0.990       .  S
O369        H390   0.990   1_455  S
O370        C374   1.287       .  A
O371        C374   1.285       .  A
O372        H382   0.990       .  S
O373        H386   0.990       .  S
C374       C1024   1.489       .  S
Zr397       O398   2.439       .  S
Zr397       O399   2.440       .  S
Zr397       O400   2.426       .  S
Zr397       O403   2.442       .  S
Zr397       O405   2.382       .  S
Zr397       O406   2.378       .  S
Zr397       O407   2.412       .  S
Zr397       O408   2.403       .  S
O398        H454   0.990       .  S
O398        H462   0.990       .  S
O399        C419   1.286       .  A
O400        C421   1.284       .  A
O401       Zr411   2.406       .  S
O401        C420   1.281       .  A
O402       Zr410   2.457       .  S
O402        C421   1.289       .  A
O403        C420   1.286       .  A
O404       Zr412   2.419       .  S
O404        C419   1.282       .  A
O405       Zr410   2.394       .  S
O405       Zr412   2.377       .  S
O406       Zr411   2.390       .  S
O406       Zr412   2.370       .  S
O406        H441   0.967       .  S
O407       Zr410   2.402       .  S
O407       Zr427   2.392       .  S
O407        H444   0.965       .  S
O408       Zr411   2.385       .  S
O408       Zr427   2.396       .  S
Zr409       O434   2.445       .  S
Zr409       O428   2.436   1_556  S
Zr409       O436   2.449   1_556  S
Zr409       O424   2.414       .  S
Zr409       O415   2.396       .  S
Zr409       O416   2.412       .  S
Zr409       O417   2.383       .  S
Zr409       O418   2.376   1_556  S
Zr410       O429   2.435       .  S
Zr410       O422   2.436       .  S
Zr410       O423   2.454       .  S
Zr410       O416   2.405       .  S
Zr410       O417   2.388       .  S
Zr411       O413   2.435   1_556  S
Zr411       O435   2.437       .  S
Zr411       O437   2.419   1_556  S
Zr411       O415   2.383       .  S
Zr411       O418   2.385   1_556  S
Zr412       O438   2.436       .  S
Zr412       O439   2.435       .  S
Zr412       O414   2.435       .  S
Zr412       O415   2.395       .  S
Zr412       O416   2.390       .  S
O413        H450   0.990       .  S
O414        H445   0.990       .  S
O414        H459   0.990       .  S
O416        H442   0.966       .  S
O417       Zr427   2.370       .  S
O418       Zr427   2.375   1_554  S
O418        H443   0.965       .  S
C419        C980   1.486       .  S
C420       C1332   1.483       .  S
C421       C1057   1.490       .  S
O422        H458   0.990       .  S
O423        C425   1.290       .  A
O424        C425   1.283       .  A
C425        C947   1.483       .  S
O426       Zr427   2.438       .  S
O426        H455   0.990       .  S
Zr427       O430   2.437       .  S
Zr427       O431   2.439   1_556  S
Zr427       O432   2.432   1_556  S
O428        C433   1.286       .  A
O429        H446   0.990       .  S
O429        H461   0.990       .  S
O430        H447   0.990       .  S
O431        H451   0.990       .  S
O431        H460   0.989       .  S
O432        C433   1.285       .  A
C433       C1464   1.488       .  S
O434        H453   0.990       .  S
O434        H457   0.990       .  S
O435        H449   0.990   1_556  S
O435        H456   0.990       .  S
O436        C440   1.288       .  A
O437        C440   1.283       .  A
O438        H448   0.990       .  S
O439        H452   0.990       .  S
C440        C936   1.488       .  S
Zr463       O464   2.440       .  S
Zr463       O465   2.438       .  S
Zr463       O466   2.406       .  S
Zr463       O469   2.440       .  S
Zr463       O471   2.381       .  S
Zr463       O472   2.372       .  S
Zr463       O473   2.412       .  S
Zr463       O474   2.396       .  S
O464        H520   0.990       .  S
O464        H528   0.990       .  S
O465        C485   1.285       .  A
O466        C487   1.281       .  A
O467       Zr477   2.420       .  S
O467        C486   1.283       .  A
O468       Zr476   2.471       .  S
O468        C487   1.293       .  A
O469        C486   1.287       .  A
O470       Zr478   2.436       .  S
O470        C485   1.285       .  A
O471       Zr476   2.394       .  S
O471       Zr478   2.372       .  S
O472       Zr477   2.391       .  S
O472       Zr478   2.369       .  S
O472        H507   0.967       .  S
O473       Zr476   2.408       .  S
O473       Zr493   2.389       .  S
O473        H510   0.966       .  S
O474       Zr477   2.386       .  S
O474       Zr493   2.399       .  S
Zr475       O500   2.447       .  S
Zr475       O494   2.443       .  S
Zr475       O502   2.448       .  S
Zr475       O490   2.412       .  S
Zr475       O481   2.401       .  S
Zr475       O482   2.414       .  S
Zr475       O483   2.381       .  S
Zr475       O484   2.373       .  S
Zr476       O495   2.437       .  S
Zr476       O488   2.434       .  S
Zr476       O489   2.470       .  S
Zr476       O482   2.406       .  S
Zr476       O483   2.393       .  S
Zr477       O479   2.434       .  S
Zr477       O501   2.438       .  S
Zr477       O503   2.417       .  S
Zr477       O481   2.386       .  S
Zr477       O484   2.388       .  S
Zr478       O504   2.434       .  S
Zr478       O505   2.434       .  S
Zr478       O480   2.436       .  S
Zr478       O481   2.400       .  S
Zr478       O482   2.392       .  S
O479        H516   0.990       .  S
O480        H511   0.990       .  S
O480        H525   0.990       .  S
O482        H508   0.966       .  S
O483       Zr493   2.373       .  S
O484       Zr493   2.373       .  S
O484        H509   0.967       .  S
C485        C892   1.492       .  S
C486       C1354   1.484       .  S
C487        C903   1.488       .  S
O488        H524   0.990       .  S
O489        C491   1.292       .  A
O490        C491   1.282       .  A
C491        C969   1.487       .  S
O492       Zr493   2.437       .  S
O492        H521   0.990       .  S
Zr493       O496   2.436       .  S
Zr493       O497   2.440       .  S
Zr493       O498   2.428       .  S
O494        C499   1.287       .  A
O495        H512   0.990       .  S
O495        H527   0.990       .  S
O496        H513   0.990       .  S
O497        H517   0.990       .  S
O497        H526   0.990       .  S
O498        C499   1.284       .  A
C499       C1046   1.490       .  S
O500        H519   0.990       .  S
O500        H523   0.990       .  S
O501        H515   0.990       .  S
O501        H522   0.990       .  S
O502        C506   1.288       .  A
O503        C506   1.283       .  A
O504        H514   0.990       .  S
O505        H518   0.990       .  S
C506       C1178   1.486       .  S
Zr529       O530   2.439       .  S
Zr529       O531   2.429       .  S
Zr529       O532   2.414       .  S
Zr529       O535   2.441       .  S
Zr529       O537   2.381       .  S
Zr529       O538   2.377       .  S
Zr529       O539   2.407       .  S
Zr529       O540   2.401       .  S
O530        H586   0.990       .  S
O530        H594   0.990       .  S
O531        C551   1.284       .  A
O532        C553   1.282       .  A
O533       Zr543   2.425       .  S
O533        C552   1.285       .  A
O534       Zr542   2.471       .  S
O534        C553   1.292       .  A
O535        C552   1.287       .  A
O536       Zr544   2.426       .  S
O536        C551   1.283       .  A
O537       Zr542   2.391       .  S
O537       Zr544   2.376       .  S
O538       Zr543   2.388       .  S
O538       Zr544   2.371       .  S
O538        H573   0.967       .  S
O539       Zr542   2.404       .  S
O539       Zr559   2.390       .  S
O539        H576   0.965       .  S
O540       Zr543   2.393       .  S
O540       Zr559   2.403       .  S
Zr541       O566   2.445       .  S
Zr541       O560   2.435       .  S
Zr541       O568   2.443       .  S
Zr541       O556   2.414       .  S
Zr541       O547   2.399       .  S
Zr541       O548   2.406       .  S
Zr541       O549   2.384       .  S
Zr541       O550   2.376       .  S
Zr542       O561   2.436       .  S
Zr542       O554   2.435       .  S
Zr542       O555   2.466       .  S
Zr542       O548   2.405       .  S
Zr542       O549   2.393       .  S
Zr543       O545   2.435       .  S
Zr543       O567   2.438       .  S
Zr543       O569   2.422       .  S
Zr543       O547   2.387       .  S
Zr543       O550   2.391       .  S
Zr544       O570   2.438       .  S
Zr544       O571   2.436       .  S
Zr544       O546   2.437       .  S
Zr544       O547   2.400       .  S
Zr544       O548   2.386       .  S
O545        H582   0.990       .  S
O546        H577   0.990       .  S
O546        H591   0.990       .  S
O548        H574   0.966       .  S
O549       Zr559   2.375       .  S
O550       Zr559   2.371       .  S
O550        H575   0.966       .  S
C551        C914   1.484       .  S
C552       C1310   1.488       .  S
C553        C848   1.489       .  S
O554        H590   0.990       .  S
O555        C557   1.292       .  A
O556        C557   1.283       .  A
C557       C1090   1.489       .  S
O558       Zr559   2.439       .  S
O558        H587   0.990       .  S
Zr559       O562   2.437       .  S
Zr559       O563   2.440       .  S
Zr559       O564   2.430       .  S
O560        C565   1.286       .  A
O561        H578   0.990       .  S
O561        H593   0.990       .  S
O562        H579   0.990       .  S
O563        H583   0.990       .  S
O563        H592   0.990       .  S
O564        C565   1.284       .  A
C565        C870   1.487       .  S
O566        H585   0.990       .  S
O566        H589   0.990       .  S
O567        H581   0.990       .  S
O567        H588   0.990       .  S
O568        C572   1.287       .  A
O569        C572   1.284       .  A
O570        H580   0.990       .  S
O571        H584   0.990       .  S
C572        C925   1.482       .  S
Zr595       O596   2.439       .  S
Zr595       O597   2.423       .  S
Zr595       O598   2.418       .  S
Zr595       O601   2.445       .  S
Zr595       O603   2.384       .  S
Zr595       O604   2.377       .  S
Zr595       O605   2.411       .  S
Zr595       O606   2.396       .  S
O596        H652   0.990       .  S
O596        H660   0.990       .  S
O597        C617   1.283       .  A
O598        C619   1.283       .  A
O599       Zr609   2.421       .  S
O599        C618   1.284       .  A
O600       Zr608   2.448       .  S
O600        C619   1.288       .  A
O601        C618   1.288       .  A
O602       Zr610   2.439       .  S
O602        C617   1.285       .  A
O603       Zr608   2.393       .  S
O603       Zr610   2.372       .  S
O604       Zr609   2.391       .  S
O604       Zr610   2.366       .  S
O604        H639   0.967       .  S
O605       Zr608   2.412       .  S
O605       Zr625   2.389       .  S
O605        H642   0.965       .  S
O606       Zr609   2.390       .  S
O606       Zr625   2.397       .  S
Zr607       O632   2.443       .  S
Zr607       O626   2.436       .  S
Zr607       O634   2.434       .  S
Zr607       O622   2.412       .  S
Zr607       O613   2.399       .  S
Zr607       O614   2.408       .  S
Zr607       O615   2.373       .  S
Zr607       O616   2.379       .  S
Zr608       O627   2.436       .  S
Zr608       O620   2.434       .  S
Zr608       O621   2.461       .  S
Zr608       O614   2.399       .  S
Zr608       O615   2.381       .  S
Zr609       O611   2.435       .  S
Zr609       O633   2.437       .  S
Zr609       O635   2.428       .  S
Zr609       O613   2.384       .  S
Zr609       O616   2.389       .  S
Zr610       O636   2.437       .  S
Zr610       O637   2.435       .  S
Zr610       O612   2.435       .  S
Zr610       O613   2.401       .  S
Zr610       O614   2.399       .  S
O611        H648   0.990       .  S
O612        H643   0.990       .  S
O612        H657   0.990       .  S
O614        H640   0.966       .  S
O615       Zr625   2.373       .  S
O616       Zr625   2.374       .  S
O616        H641   0.967       .  S
C617        C815   1.488       .  S
C618       C1145   1.485       .  S
C619       C1244   1.476       .  S
O620        H656   0.990       .  S
O621        C623   1.290       .  A
O622        C623   1.282       .  A
C623        C881   1.490       .  S
O624       Zr625   2.439       .  S
O624        H653   0.990       .  S
Zr625       O628   2.435       .  S
Zr625       O629   2.440       .  S
Zr625       O630   2.427       .  S
O626        C631   1.286       .  A
O627        H644   0.990       .  S
O627        H659   0.990       .  S
O628        H645   0.990       .  S
O629        H649   0.990       .  S
O629        H658   0.990       .  S
O630        C631   1.284       .  A
C631        C837   1.488       .  S
O632        H651   0.990       .  S
O632        H655   0.990       .  S
O633        H647   0.990       .  S
O633        H654   0.990       .  S
O634        C638   1.285       .  A
O635        C638   1.286       .  A
O636        H646   0.990       .  S
O637        H650   0.990       .  S
C638       C1541   1.484       .  S
Zr661       O662   2.440       .  S
Zr661       O663   2.435   1_545  S
Zr661       O664   2.410       .  S
Zr661       O667   2.437   1_545  S
Zr661       O669   2.382       .  S
Zr661       O670   2.376   1_545  S
Zr661       O671   2.409       .  S
Zr661       O672   2.398       .  S
O662        H718   0.990       .  S
O662        H726   0.990       .  S
O663        C683   1.285       .  A
O664        C685   1.281       .  A
O665       Zr675   2.425   1_565  S
O665        C684   1.285       .  A
O666       Zr674   2.452       .  S
O666        C685   1.288       .  A
O667        C684   1.286       .  A
O668       Zr676   2.434   1_565  S
O668        C683   1.284       .  A
O669       Zr674   2.395       .  S
O669       Zr676   2.374       .  S
O670       Zr675   2.388   1_565  S
O670       Zr676   2.376   1_565  S
O670        H705   0.967       .  S
O671       Zr674   2.408       .  S
O671       Zr691   2.396       .  S
O671        H708   0.966       .  S
O672       Zr675   2.390       .  S
O672       Zr691   2.400       .  S
Zr673       O698   2.443       .  S
Zr673       O692   2.431       .  S
Zr673       O700   2.445       .  S
Zr673       O688   2.414       .  S
Zr673       O679   2.399       .  S
Zr673       O680   2.409       .  S
Zr673       O681   2.378       .  S
Zr673       O682   2.375       .  S
Zr674       O693   2.435       .  S
Zr674       O686   2.436       .  S
Zr674       O687   2.462       .  S
Zr674       O680   2.400       .  S
Zr674       O681   2.390       .  S
Zr675       O677   2.435   1_545  S
Zr675       O699   2.435   1_545  S
Zr675       O701   2.423       .  S
Zr675       O679   2.386       .  S
Zr675       O682   2.393       .  S
Zr676       O702   2.437   1_545  S
Zr676       O703   2.434       .  S
Zr676       O678   2.437       .  S
Zr676       O679   2.400       .  S
Zr676       O680   2.394       .  S
O677        H714   0.990       .  S
O678        H709   0.990       .  S
O678        H723   0.990       .  S
O680        H706   0.966       .  S
O681       Zr691   2.373       .  S
O682       Zr691   2.374       .  S
O682        H707   0.964       .  S
C683        C958   1.490       .  S
C684        C793   1.487       .  S
C685       C1530   1.482       .  S
O686        H722   0.990       .  S
O687        C689   1.291       .  A
O688        C689   1.282       .  A
C689        C826   1.485       .  S
O690       Zr691   2.439       .  S
O690        H719   0.991       .  S
Zr691       O694   2.439       .  S
Zr691       O695   2.440       .  S
Zr691       O696   2.428       .  S
O692        C697   1.285       .  A
O693        H710   0.990       .  S
O693        H725   0.990       .  S
O694        H711   0.990       .  S
O695        H715   0.990       .  S
O695        H724   0.990       .  S
O696        C697   1.283       .  A
C697       C1189   1.487       .  S
O698        H717   0.990       .  S
O698        H721   0.990       .  S
O699        H713   0.990       .  S
O699        H720   0.990       .  S
O700        C704   1.287       .  A
O701        C704   1.284       .  A
O702        H712   0.990       .  S
O703        H716   0.990       .  S
C704       C1013   1.488       .  S
Zr727       O728   2.442       .  S
Zr727       O729   2.441   1_554  S
Zr727       O730   2.421       .  S
Zr727       O733   2.440   1_554  S
Zr727       O735   2.381       .  S
Zr727       O736   2.378   1_554  S
Zr727       O737   2.408       .  S
Zr727       O738   2.407       .  S
O728        H784   0.991       .  S
O728        H792   0.990       .  S
O729        C749   1.286       .  A
O730        C751   1.283       .  A
O731       Zr741   2.420   1_556  S
O731        C750   1.284       .  A
O732       Zr740   2.455       .  S
O732        C751   1.289       .  A
O733        C750   1.287       .  A
O734       Zr742   2.430   1_556  S
O734        C749   1.284       .  A
O735       Zr740   2.392       .  S
O735       Zr742   2.375       .  S
O736       Zr741   2.394   1_556  S
O736       Zr742   2.366   1_556  S
O736        H771   0.965       .  S
O737       Zr740   2.407       .  S
O737       Zr757   2.388       .  S
O737        H774   0.965       .  S
O738       Zr741   2.399       .  S
O738       Zr757   2.402       .  S
Zr739       O764   2.444       .  S
Zr739       O758   2.443       .  S
Zr739       O766   2.430       .  S
Zr739       O754   2.403       .  S
Zr739       O745   2.400       .  S
Zr739       O746   2.414       .  S
Zr739       O747   2.377       .  S
Zr739       O748   2.375       .  S
Zr740       O759   2.435       .  S
Zr740       O752   2.435       .  S
Zr740       O753   2.455       .  S
Zr740       O746   2.405       .  S
Zr740       O747   2.390       .  S
Zr741       O743   2.434   1_554  S
Zr741       O765   2.437   1_554  S
Zr741       O767   2.436       .  S
Zr741       O745   2.383       .  S
Zr741       O748   2.392       .  S
Zr742       O768   2.438   1_554  S
Zr742       O769   2.435       .  S
Zr742       O744   2.437       .  S
Zr742       O745   2.401       .  S
Zr742       O746   2.394       .  S
O743        H780   0.990       .  S
O744        H775   0.990       .  S
O744        H789   0.990       .  S
O746        H772   0.966       .  S
O747       Zr757   2.371       .  S
O748       Zr757   2.371       .  S
O748        H773   0.970       .  S
C749       C1211   1.491       .  S
C750        C991   1.484       .  S
C751       C1288   1.485       .  S
O752        H788   0.990       .  S
O753        C755   1.290       .  A
O754        C755   1.280       .  A
C755        C859   1.479       .  S
O756       Zr757   2.438       .  S
O756        H785   0.991       .  S
Zr757       O760   2.436       .  S
Zr757       O761   2.441       .  S
Zr757       O762   2.425       .  S
O758        C763   1.286       .  A
O759        H776   0.990       .  S
O759        H791   0.990       .  S
O760        H777   0.990       .  S
O761        H781   0.990       .  S
O761        H790   0.990       .  S
O762        C763   1.283       .  A
C763       C1101   1.490       .  S
O764        H783   0.990       .  S
O764        H787   0.990       .  S
O765        H779   0.990       .  S
O765        H786   0.990       .  S
O766        C770   1.284       .  A
O767        C770   1.286       .  A
O768        H778   0.990       .  S
O769        H782   0.990       .  S
C770        C804   1.486       .  S
C793        C794   1.408       .  A
C793        C798   1.410       .  A
C794        C795   1.394       .  A
C794        H807   1.083       .  S
C795        C796   1.398       .  A
C795        H808   1.084       .  S
C796        C797   1.401       .  A
C796        C799   1.441       .  S
C797        C798   1.404       .  A
C797        H809   1.083       .  S
C798        H810   1.083       .  S
C799        C800   1.207   1_556  T
C800        C801   1.441       .  S
C801        C802   1.401       .  A
C801        C806   1.398   1_554  A
C802        C803   1.403       .  A
C802        H811   1.083       .  S
C803        C804   1.411       .  A
C803        H812   1.083       .  S
C804        C805   1.407   1_554  A
C805        C806   1.395       .  A
C805        H813   1.083       .  S
C806        H814   1.084       .  S
C815        C816   1.410       .  A
C815        C820   1.408       .  A
C816        C817   1.401       .  A
C816        H829   1.083       .  S
C817        C818   1.401       .  A
C817        H830   1.084       .  S
C818        C819   1.399       .  A
C818        C821   1.445       .  S
C819        C820   1.399       .  A
C819        H831   1.083       .  S
C820        H832   1.083       .  S
C821        C822   1.210       .  T
C822        C823   1.446       .  S
C823        C824   1.403       .  A
C823        C828   1.398       .  A
C824        C825   1.404       .  A
C824        H833   1.083       .  S
C825        C826   1.406       .  A
C825        H834   1.083       .  S
C826        C827   1.410       .  A
C827        C828   1.397       .  A
C827        H835   1.083       .  S
C828        H836   1.084       .  S
C837        C838   1.410       .  A
C837        C842   1.409       .  A
C838        C839   1.401       .  A
C838        H851   1.083       .  S
C839        C840   1.400       .  A
C839        H852   1.083       .  S
C840        C841   1.401       .  A
C840        C843   1.446       .  S
C841        C842   1.400       .  A
C841        H853   1.083       .  S
C842        H854   1.083       .  S
C843        C844   1.210       .  T
C844        C845   1.447       .  S
C845        C846   1.398       .  A
C845        C850   1.404       .  A
C846        C847   1.397       .  A
C846        H855   1.084       .  S
C847        C848   1.411       .  A
C847        H856   1.083       .  S
C848        C849   1.407       .  A
C849        C850   1.405       .  A
C849        H857   1.083       .  S
C850        H858   1.083       .  S
C859        C860   1.405       .  A
C859        C864   1.409       .  A
C860        C861   1.401       .  A
C860        H873   1.083       .  S
C861        C862   1.402       .  A
C861        H874   1.083       .  S
C862        C863   1.398       .  A
C862        C865   1.440       .  S
C863        C864   1.395       .  A
C863        H875   1.084       .  S
C864        H876   1.084       .  S
C865        C866   1.207       .  T
C866        C867   1.441       .  S
C867        C868   1.400       .  A
C867        C872   1.399       .  A
C868        C869   1.400       .  A
C868        H877   1.084       .  S
C869        C870   1.408       .  A
C869        H878   1.083       .  S
C870        C871   1.410       .  A
C871        C872   1.399       .  A
C871        H879   1.083       .  S
C872        H880   1.084       .  S
C881        C882   1.408       .  A
C881        C886   1.411       .  A
C882        C883   1.406       .  A
C882        H895   1.083       .  S
C883        C884   1.404       .  A
C883        H896   1.083       .  S
C884        C885   1.397       .  A
C884        C887   1.448       .  S
C885        C886   1.396       .  A
C885        H897   1.084       .  S
C886        H898   1.083       .  S
C887        C888   1.211       .  T
C888        C889   1.449       .  S
C889        C890   1.402       .  A
C889        C894   1.400       .  A
C890        C891   1.403       .  A
C890        H899   1.084       .  S
C891        C892   1.410       .  A
C891        H900   1.083       .  S
C892        C893   1.410       .  A
C893        C894   1.401       .  A
C893        H901   1.083       .  S
C894        H902   1.083       .  S
C903        C904   1.412       .  A
C903        C908   1.407       .  A
C904        C905   1.395       .  A
C904        H917   1.083       .  S
C905        C906   1.397       .  A
C905        H918   1.084       .  S
C906        C907   1.402       .  A
C906        C909   1.442       .  S
C907        C908   1.404       .  A
C907        H919   1.083       .  S
C908        H920   1.083       .  S
C909        C910   1.207       .  T
C910        C911   1.441       .  S
C911        C912   1.399       .  A
C911        C916   1.400       .  A
C912        C913   1.398       .  A
C912        H921   1.083       .  S
C913        C914   1.409       .  A
C913        H922   1.083       .  S
C914        C915   1.408       .  A
C915        C916   1.399       .  A
C915        H923   1.083       .  S
C916        H924   1.083       .  S
C925        C926   1.407       .  A
C925        C930   1.407       .  A
C926        C927   1.403       .  A
C926        H939   1.083       .  S
C927        C928   1.401       .  A
C927        H940   1.083       .  S
C928        C929   1.399       .  A
C928        C931   1.442       .  S
C929        C930   1.396       .  A
C929        H941   1.084       .  S
C930        H942   1.083       .  S
C931        C932   1.208       .  T
C932        C933   1.442       .  S
C933        C934   1.398       .  A
C933        C938   1.402       .  A
C934        C935   1.395       .  A
C934        H943   1.084       .  S
C935        C936   1.409       .  A
C935        H944   1.083       .  S
C936        C937   1.410       .  A
C937        C938   1.404       .  A
C937        H945   1.083       .  S
C938        H946   1.083       .  S
C947        C948   1.407       .  A
C947        C952   1.410       .  A
C948        C949   1.402       .  A
C948        H961   1.083       .  S
C949        C950   1.402       .  A
C949        H962   1.083       .  S
C950        C951   1.398       .  A
C950        C953   1.442       .  S
C951        C952   1.396       .  A
C951        H963   1.084       .  S
C952        H964   1.083       .  S
C953        C954   1.208       .  T
C954        C955   1.443       .  S
C955        C956   1.400       .  A
C955        C960   1.400       .  A
C956        C957   1.400       .  A
C956        H965   1.084       .  S
C957        C958   1.409       .  A
C957        H966   1.083       .  S
C958        C959   1.410       .  A
C959        C960   1.401       .  A
C959        H967   1.083       .  S
C960        H968   1.084       .  S
C969        C970   1.410       .  A
C969        C974   1.407       .  A
C970        C971   1.395       .  A
C970        H983   1.083       .  S
C971        C972   1.397       .  A
C971        H984   1.084       .  S
C972        C973   1.403       .  A
C972        C975   1.443       .  S
C973        C974   1.405       .  A
C973        H985   1.083       .  S
C974        H986   1.083       .  S
C975        C976   1.208       .  T
C976        C977   1.443       .  S
C977        C978   1.399       .  A
C977        C982   1.401       .  A
C978        C979   1.399       .  A
C978        H987   1.083       .  S
C979        C980   1.410       .  A
C979        H988   1.083       .  S
C980        C981   1.408       .  A
C981        C982   1.400       .  A
C981        H989   1.083       .  S
C982        H990   1.083       .  S
C991        C992   1.409       .  A
C991        C996   1.408       .  A
C992        C993   1.403       .  A
C992       H1005   1.083       .  S
C993        C994   1.401       .  A
C993       H1006   1.083       .  S
C994        C995   1.397       .  A
C994        C997   1.440       .  S
C995        C996   1.393       .  A
C995       H1007   1.084       .  S
C996       H1008   1.083       .  S
C997        C998   1.206       .  T
C998        C999   1.440   1_655  S
C999       C1000   1.398   1_455  A
C999       C1004   1.400       .  A
C1000      C1001   1.395       .  A
C1000      H1009   1.084       .  S
C1001      C1002   1.407   1_655  A
C1001      H1010   1.083       .  S
C1002      C1003   1.410       .  A
C1003      C1004   1.403       .  A
C1003      H1011   1.083       .  S
C1004      H1012   1.083       .  S
C1013      C1014   1.410       .  A
C1013      C1018   1.409   1_545  A
C1014      C1015   1.404       .  A
C1014      H1027   1.083       .  S
C1015      C1016   1.402       .  A
C1015      H1028   1.083       .  S
C1016      C1017   1.398   1_545  A
C1016      C1019   1.444   1_545  S
C1017      C1018   1.395       .  A
C1017      H1029   1.084       .  S
C1018      H1030   1.083       .  S
C1019      C1020   1.209       .  T
C1020      C1021   1.444       .  S
C1021      C1022   1.398       .  A
C1021      C1026   1.402       .  A
C1022      C1023   1.395       .  A
C1022      H1031   1.084       .  S
C1023      C1024   1.409       .  A
C1023      H1032   1.083       .  S
C1024      C1025   1.411       .  A
C1025      C1026   1.406       .  A
C1025      H1033   1.083       .  S
C1026      H1034   1.083       .  S
C1035      C1036   1.411       .  A
C1035      C1040   1.407       .  A
C1036      C1037   1.397       .  A
C1036      H1049   1.083       .  S
C1037      C1038   1.398       .  A
C1037      H1050   1.084       .  S
C1038      C1039   1.403       .  A
C1038      C1041   1.446       .  S
C1039      C1040   1.405       .  A
C1039      H1051   1.083       .  S
C1040      H1052   1.083       .  S
C1041      C1042   1.210       .  T
C1042      C1043   1.446       .  S
C1043      C1044   1.400       .  A
C1043      C1048   1.401       .  A
C1044      C1045   1.401       .  A
C1044      H1053   1.084       .  S
C1045      C1046   1.411       .  A
C1045      H1054   1.083       .  S
C1046      C1047   1.408       .  A
C1047      C1048   1.401       .  A
C1047      H1055   1.083       .  S
C1048      H1056   1.083       .  S
C1057      C1058   1.410       .  A
C1057      C1062   1.409       .  A
C1058      C1059   1.396       .  A
C1058      H1071   1.083       .  S
C1059      C1060   1.398       .  A
C1059      H1072   1.084       .  S
C1060      C1061   1.403       .  A
C1060      C1063   1.445       .  S
C1061      C1062   1.405       .  A
C1061      H1073   1.083       .  S
C1062      H1074   1.083       .  S
C1063      C1064   1.209       .  T
C1064      C1065   1.445       .  S
C1065      C1066   1.400       .  A
C1065      C1070   1.401       .  A
C1066      C1067   1.400       .  A
C1066      H1075   1.083       .  S
C1067      C1068   1.411       .  A
C1067      H1076   1.083       .  S
C1068      C1069   1.408       .  A
C1069      C1070   1.400       .  A
C1069      H1077   1.083       .  S
C1070      H1078   1.083       .  S
C1079      C1080   1.411       .  A
C1079      C1084   1.408       .  A
C1080      C1081   1.400       .  A
C1080      H1093   1.083       .  S
C1081      C1082   1.399       .  A
C1081      H1094   1.084       .  S
C1082      C1083   1.401       .  A
C1082      C1085   1.445       .  S
C1083      C1084   1.401       .  A
C1083      H1095   1.083       .  S
C1084      H1096   1.083       .  S
C1085      C1086   1.209       .  T
C1086      C1087   1.444       .  S
C1087      C1088   1.397       .  A
C1087      C1092   1.403       .  A
C1088      C1089   1.396       .  A
C1088      H1097   1.084       .  S
C1089      C1090   1.411       .  A
C1089      H1098   1.083       .  S
C1090      C1091   1.408       .  A
C1091      C1092   1.405       .  A
C1091      H1099   1.083       .  S
C1092      H1100   1.083       .  S
C1101      C1102   1.411       .  A
C1101      C1106   1.408       .  A
C1102      C1103   1.399       .  A
C1102      H1115   1.083       .  S
C1103      C1104   1.398       .  A
C1103      H1116   1.084       .  S
C1104      C1105   1.402       .  A
C1104      C1107   1.444       .  S
C1105      C1106   1.402       .  A
C1105      H1117   1.083       .  S
C1106      H1118   1.083       .  S
C1107      C1108   1.209       .  T
C1108      C1109   1.444       .  S
C1109      C1110   1.398       .  A
C1109      C1114   1.403       .  A
C1110      C1111   1.396       .  A
C1110      H1119   1.084       .  S
C1111      C1112   1.408       .  A
C1111      H1120   1.083       .  S
C1112      C1113   1.408       .  A
C1113      C1114   1.404       .  A
C1113      H1121   1.083       .  S
C1114      H1122   1.083       .  S
C1123      C1124   1.407       .  A
C1123      C1128   1.408       .  A
C1124      C1125   1.401       .  A
C1124      H1137   1.083       .  S
C1125      C1126   1.401       .  A
C1125      H1138   1.083       .  S
C1126      C1127   1.397       .  A
C1126      C1129   1.438       .  S
C1127      C1128   1.395       .  A
C1127      H1139   1.084       .  S
C1128      H1140   1.083       .  S
C1129      C1130   1.205       .  T
C1130      C1131   1.438       .  S
C1131      C1132   1.398       .  A
C1131      C1136   1.399       .  A
C1132      C1133   1.397       .  A
C1132      H1141   1.084       .  S
C1133      C1134   1.408       .  A
C1133      H1142   1.083       .  S
C1134      C1135   1.410       .  A
C1135      C1136   1.399       .  A
C1135      H1143   1.083       .  S
C1136      H1144   1.084       .  S
C1145      C1146   1.408       .  A
C1145      C1150   1.409       .  A
C1146      C1147   1.395       .  A
C1146      H1159   1.083       .  S
C1147      C1148   1.398       .  A
C1147      H1160   1.084       .  S
C1148      C1149   1.401       .  A
C1148      C1151   1.441       .  S
C1149      C1150   1.403       .  A
C1149      H1161   1.083       .  S
C1150      H1162   1.083       .  S
C1151      C1152   1.207       .  T
C1152      C1153   1.440       .  S
C1153      C1154   1.401       .  A
C1153      C1158   1.398       .  A
C1154      C1155   1.403       .  A
C1154      H1163   1.083       .  S
C1155      C1156   1.410       .  A
C1155      H1164   1.083       .  S
C1156      C1157   1.407       .  A
C1157      C1158   1.393       .  A
C1157      H1165   1.083       .  S
C1158      H1166   1.084       .  S
C1167      C1168   1.409       .  A
C1167      C1172   1.410       .  A
C1168      C1169   1.395       .  A
C1168      H1181   1.083       .  S
C1169      C1170   1.398       .  A
C1169      H1182   1.084       .  S
C1170      C1171   1.402       .  A
C1170      C1173   1.442       .  S
C1171      C1172   1.404       .  A
C1171      H1183   1.083       .  S
C1172      H1184   1.083       .  S
C1173      C1174   1.208       .  T
C1174      C1175   1.442       .  S
C1175      C1176   1.402       .  A
C1175      C1180   1.397       .  A
C1176      C1177   1.405       .  A
C1176      H1185   1.083       .  S
C1177      C1178   1.409       .  A
C1177      H1186   1.083       .  S
C1178      C1179   1.409       .  A
C1179      C1180   1.393       .  A
C1179      H1187   1.083       .  S
C1180      H1188   1.084       .  S
C1189      C1190   1.410       .  A
C1189      C1194   1.409       .  A
C1190      C1191   1.400       .  A
C1190      H1203   1.083       .  S
C1191      C1192   1.399       .  A
C1191      H1204   1.083       .  S
C1192      C1193   1.401       .  A
C1192      C1195   1.444       .  S
C1193      C1194   1.400       .  A
C1193      H1205   1.083       .  S
C1194      H1206   1.083       .  S
C1195      C1196   1.209       .  T
C1196      C1197   1.444       .  S
C1197      C1198   1.403       .  A
C1197      C1202   1.397       .  A
C1198      C1199   1.405       .  A
C1198      H1207   1.083       .  S
C1199      C1200   1.409       .  A
C1199      H1208   1.083       .  S
C1200      C1201   1.410       .  A
C1201      C1202   1.396       .  A
C1201      H1209   1.083       .  S
C1202      H1210   1.084       .  S
C1211      C1212   1.409       .  A
C1211      C1216   1.410       .  A
C1212      C1213   1.402       .  A
C1212      H1225   1.083       .  S
C1213      C1214   1.402       .  A
C1213      H1226   1.083       .  S
C1214      C1215   1.399       .  A
C1214      C1217   1.446       .  S
C1215      C1216   1.400       .  A
C1215      H1227   1.083       .  S
C1216      H1228   1.083       .  S
C1217      C1218   1.210       .  T
C1218      C1219   1.446       .  S
C1219      C1220   1.403       .  A
C1219      C1224   1.398       .  A
C1220      C1221   1.404       .  A
C1220      H1229   1.083       .  S
C1221      C1222   1.407       .  A
C1221      H1230   1.083       .  S
C1222      C1223   1.409       .  A
C1223      C1224   1.397       .  A
C1223      H1231   1.083       .  S
C1224      H1232   1.084       .  S
C1233      C1234   1.409       .  A
C1233      C1238   1.408       .  A
C1234      C1235   1.396       .  A
C1234      H1247   1.083       .  S
C1235      C1236   1.398       .  A
C1235      H1248   1.084       .  S
C1236      C1237   1.399       .  A
C1236      C1239   1.435       .  S
C1237      C1238   1.397       .  A
C1237      H1249   1.084       .  S
C1238      H1250   1.083       .  S
C1239      C1240   1.203       .  T
C1240      C1241   1.436       .  S
C1241      C1242   1.398       .  A
C1241      C1246   1.400       .  A
C1242      C1243   1.396       .  A
C1242      H1251   1.084       .  S
C1243      C1244   1.407       .  A
C1243      H1252   1.083       .  S
C1244      C1245   1.406       .  A
C1245      C1246   1.399       .  A
C1245      H1253   1.083       .  S
C1246      H1254   1.083       .  S
C1255      C1256   1.408       .  A
C1255      C1260   1.410       .  A
C1256      C1257   1.403       .  A
C1256      H1269   1.083       .  S
C1257      C1258   1.402       .  A
C1257      H1270   1.083       .  S
C1258      C1259   1.397       .  A
C1258      C1261   1.442   1_554  S
C1259      C1260   1.396       .  A
C1259      H1271   1.084   1_554  S
C1260      H1272   1.083       .  S
C1261      C1262   1.208       .  T
C1262      C1263   1.442       .  S
C1263      C1264   1.400       .  A
C1263      C1268   1.399       .  A
C1264      C1265   1.400       .  A
C1264      H1273   1.084       .  S
C1265      C1266   1.409       .  A
C1265      H1274   1.083       .  S
C1266      C1267   1.409       .  A
C1267      C1268   1.399       .  A
C1267      H1275   1.083       .  S
C1268      H1276   1.083       .  S
C1277      C1278   1.408       .  A
C1277      C1282   1.410       .  A
C1278      C1279   1.400       .  A
C1278      H1291   1.083       .  S
C1279      C1280   1.401       .  A
C1279      H1292   1.084       .  S
C1280      C1281   1.398       .  A
C1280      C1283   1.441       .  S
C1281      C1282   1.398       .  A
C1281      H1293   1.084       .  S
C1282      H1294   1.083       .  S
C1283      C1284   1.207       .  T
C1284      C1285   1.441   1_455  S
C1285      C1286   1.403       .  A
C1285      C1290   1.396       .  A
C1286      C1287   1.404       .  A
C1286      H1295   1.083       .  S
C1287      C1288   1.408       .  A
C1287      H1296   1.083       .  S
C1288      C1289   1.409       .  A
C1289      C1290   1.394       .  A
C1289      H1297   1.083       .  S
C1290      H1298   1.084   1_655  S
C1299      C1300   1.408       .  A
C1299      C1304   1.410       .  A
C1300      C1301   1.395       .  A
C1300      H1313   1.083       .  S
C1301      C1302   1.398       .  A
C1301      H1314   1.084       .  S
C1302      C1303   1.403       .  A
C1302      C1305   1.444       .  S
C1303      C1304   1.405       .  A
C1303      H1315   1.083       .  S
C1304      H1316   1.083       .  S
C1305      C1306   1.209       .  T
C1306      C1307   1.444       .  S
C1307      C1308   1.402       .  A
C1307      C1312   1.398       .  A
C1308      C1309   1.405       .  A
C1308      H1317   1.083       .  S
C1309      C1310   1.410       .  A
C1309      H1318   1.083       .  S
C1310      C1311   1.409       .  A
C1311      C1312   1.395       .  A
C1311      H1319   1.083       .  S
C1312      H1320   1.084       .  S
C1321      C1322   1.410       .  A
C1321      C1326   1.408       .  A
C1322      C1323   1.401       .  A
C1322      H1335   1.083       .  S
C1323      C1324   1.399       .  A
C1323      H1336   1.083       .  S
C1324      C1325   1.400       .  A
C1324      C1327   1.441       .  S
C1325      C1326   1.397       .  A
C1325      H1337   1.084       .  S
C1326      H1338   1.083       .  S
C1327      C1328   1.206       .  T
C1328      C1329   1.439   1_554  S
C1329      C1330   1.395   1_556  A
C1329      C1334   1.403       .  A
C1330      C1331   1.390       .  A
C1330      H1339   1.084       .  S
C1331      C1332   1.409   1_554  A
C1331      H1340   1.083       .  S
C1332      C1333   1.409       .  A
C1333      C1334   1.405       .  A
C1333      H1341   1.083       .  S
C1334      H1342   1.083       .  S
C1343      C1344   1.408       .  A
C1343      C1348   1.408       .  A
C1344      C1345   1.403       .  A
C1344      H1357   1.083       .  S
C1345      C1346   1.402       .  A
C1345      H1358   1.083       .  S
C1346      C1347   1.397       .  A
C1346      C1349   1.440       .  S
C1347      C1348   1.393       .  A
C1347      H1359   1.084       .  S
C1348      H1360   1.083       .  S
C1349      C1350   1.206       .  T
C1350      C1351   1.440       .  S
C1351      C1352   1.399       .  A
C1351      C1356   1.400       .  A
C1352      C1353   1.396       .  A
C1352      H1361   1.084       .  S
C1353      C1354   1.408       .  A
C1353      H1362   1.083       .  S
C1354      C1355   1.408       .  A
C1355      C1356   1.401       .  A
C1355      H1363   1.083       .  S
C1356      H1364   1.083       .  S
C1365      C1366   1.408   1_655  A
C1365      C1370   1.410       .  A
C1366      C1367   1.394       .  A
C1366      H1379   1.083       .  S
C1367      C1368   1.397   1_455  A
C1367      H1380   1.084       .  S
C1368      C1369   1.400       .  A
C1368      C1371   1.439   1_655  S
C1369      C1370   1.403       .  A
C1369      H1381   1.083       .  S
C1370      H1382   1.083       .  S
C1371      C1372   1.205       .  T
C1372      C1373   1.438       .  S
C1373      C1374   1.400       .  A
C1373      C1378   1.397       .  A
C1374      C1375   1.402       .  A
C1374      H1383   1.083       .  S
C1375      C1376   1.408       .  A
C1375      H1384   1.083       .  S
C1376      C1377   1.408       .  A
C1377      C1378   1.393       .  A
C1377      H1385   1.083       .  S
C1378      H1386   1.084       .  S
C1387      C1388   1.409       .  A
C1387      C1392   1.410       .  A
C1388      C1389   1.398       .  A
C1388      H1401   1.083       .  S
C1389      C1390   1.398       .  A
C1389      H1402   1.083       .  S
C1390      C1391   1.402       .  A
C1390      C1393   1.444       .  S
C1391      C1392   1.402       .  A
C1391      H1403   1.084       .  S
C1392      H1404   1.083       .  S
C1393      C1394   1.208       .  T
C1394      C1395   1.443   1_655  S
C1395      C1396   1.396       .  A
C1395      C1400   1.404       .  A
C1396      C1397   1.394       .  A
C1396      H1405   1.084   1_455  S
C1397      C1398   1.409       .  A
C1397      H1406   1.083       .  S
C1398      C1399   1.408       .  A
C1399      C1400   1.405       .  A
C1399      H1407   1.083       .  S
C1400      H1408   1.083       .  S
C1409      C1410   1.411       .  A
C1409      C1414   1.409       .  A
C1410      C1411   1.400       .  A
C1410      H1423   1.083       .  S
C1411      C1412   1.399       .  A
C1411      H1424   1.083       .  S
C1412      C1413   1.402       .  A
C1412      C1415   1.448       .  S
C1413      C1414   1.402       .  A
C1413      H1425   1.083       .  S
C1414      H1426   1.083       .  S
C1415      C1416   1.211       .  T
C1416      C1417   1.447       .  S
C1417      C1418   1.399       .  A
C1417      C1422   1.404       .  A
C1418      C1419   1.398       .  A
C1418      H1427   1.084       .  S
C1419      C1420   1.408       .  A
C1419      H1428   1.083       .  S
C1420      C1421   1.407       .  A
C1421      C1422   1.405       .  A
C1421      H1429   1.083       .  S
C1422      H1430   1.083       .  S
C1431      C1432   1.408       .  A
C1431      C1436   1.411       .  A
C1432      C1433   1.404       .  A
C1432      H1445   1.083       .  S
C1433      C1434   1.403       .  A
C1433      H1446   1.083       .  S
C1434      C1435   1.398       .  A
C1434      C1437   1.445   1_565  S
C1435      C1436   1.397       .  A
C1435      H1447   1.084   1_565  S
C1436      H1448   1.083       .  S
C1437      C1438   1.209       .  T
C1438      C1439   1.445       .  S
C1439      C1440   1.401       .  A
C1439      C1444   1.400       .  A
C1440      C1441   1.401       .  A
C1440      H1449   1.084       .  S
C1441      C1442   1.409       .  A
C1441      H1450   1.083       .  S
C1442      C1443   1.409       .  A
C1443      C1444   1.401       .  A
C1443      H1451   1.083       .  S
C1444      H1452   1.083       .  S
C1453      C1454   1.406       .  A
C1453      C1458   1.409       .  A
C1454      C1455   1.402       .  A
C1454      H1467   1.083       .  S
C1455      C1456   1.402       .  A
C1455      H1468   1.083       .  S
C1456      C1457   1.397       .  A
C1456      C1459   1.441   1_545  S
C1457      C1458   1.395       .  A
C1457      H1469   1.084   1_545  S
C1458      H1470   1.083       .  S
C1459      C1460   1.207       .  T
C1460      C1461   1.442       .  S
C1461      C1462   1.401       .  A
C1461      C1466   1.398       .  A
C1462      C1463   1.401       .  A
C1462      H1471   1.084       .  S
C1463      C1464   1.409       .  A
C1463      H1472   1.083       .  S
C1464      C1465   1.410       .  A
C1465      C1466   1.398       .  A
C1465      H1473   1.083       .  S
C1466      H1474   1.084       .  S
C1475      C1476   1.409       .  A
C1475      C1480   1.409       .  A
C1476      C1477   1.401       .  A
C1476      H1489   1.083       .  S
C1477      C1478   1.401       .  A
C1477      H1490   1.084       .  S
C1478      C1479   1.399       .  A
C1478      C1481   1.443       .  S
C1479      C1480   1.399       .  A
C1479      H1491   1.083       .  S
C1480      H1492   1.083       .  S
C1481      C1482   1.208       .  T
C1482      C1483   1.443       .  S
C1483      C1484   1.402       .  A
C1483      C1488   1.398       .  A
C1484      C1485   1.403       .  A
C1484      H1493   1.083       .  S
C1485      C1486   1.408       .  A
C1485      H1494   1.083       .  S
C1486      C1487   1.409       .  A
C1487      C1488   1.396       .  A
C1487      H1495   1.083       .  S
C1488      H1496   1.084       .  S
C1497      C1498   1.408       .  A
C1497      C1502   1.409       .  A
C1498      C1499   1.404       .  A
C1498      H1511   1.083       .  S
C1499      C1500   1.403       .  A
C1499      H1512   1.083       .  S
C1500      C1501   1.399       .  A
C1500      C1503   1.445       .  S
C1501      C1502   1.397       .  A
C1501      H1513   1.084       .  S
C1502      H1514   1.083       .  S
C1503      C1504   1.209       .  T
C1504      C1505   1.445       .  S
C1505      C1506   1.400       .  A
C1505      C1510   1.400       .  A
C1506      C1507   1.401       .  A
C1506      H1515   1.083       .  S
C1507      C1508   1.410       .  A
C1507      H1516   1.083       .  S
C1508      C1509   1.408       .  A
C1509      C1510   1.400       .  A
C1509      H1517   1.083       .  S
C1510      H1518   1.083       .  S
C1519      C1520   1.409       .  A
C1519      C1524   1.410       .  A
C1520      C1521   1.400       .  A
C1520      H1533   1.083       .  S
C1521      C1522   1.400       .  A
C1521      H1534   1.084       .  S
C1522      C1523   1.398       .  A
C1522      C1525   1.441       .  S
C1523      C1524   1.398       .  A
C1523      H1535   1.084       .  S
C1524      H1536   1.083       .  S
C1525      C1526   1.206       .  T
C1526      C1527   1.440   1_554  S
C1527      C1528   1.402       .  A
C1527      C1532   1.396       .  A
C1528      C1529   1.403       .  A
C1528      H1537   1.083       .  S
C1529      C1530   1.406       .  A
C1529      H1538   1.083       .  S
C1530      C1531   1.410       .  A
C1531      C1532   1.394       .  A
C1531      H1539   1.083       .  S
C1532      H1540   1.084   1_556  S
C1541      C1542   1.407       .  A
C1541      C1546   1.410       .  A
C1542      C1543   1.392       .  A
C1542      H1555   1.083       .  S
C1543      C1544   1.397       .  A
C1543      H1556   1.084       .  S
C1544      C1545   1.401       .  A
C1544      C1547   1.439       .  S
C1545      C1546   1.404       .  A
C1545      H1557   1.083       .  S
C1546      H1558   1.083       .  S
C1547      C1548   1.206       .  T
C1548      C1549   1.439       .  S
C1549      C1550   1.401       .  A
C1549      C1554   1.397       .  A
C1550      C1551   1.403       .  A
C1550      H1559   1.083       .  S
C1551      C1552   1.409       .  A
C1551      H1560   1.083       .  S
C1552      C1553   1.409       .  A
C1553      C1554   1.393       .  A
C1553      H1561   1.083       .  S
C1554      H1562   1.084       .  S
C1563      C1564   1.410       .  A
C1563      C1568   1.409   1_565  A
C1564      C1565   1.405       .  A
C1564      H1577   1.083       .  S
C1565      C1566   1.402       .  A
C1565      H1578   1.083       .  S
C1566      C1567   1.397   1_565  A
C1566      C1569   1.444   1_565  S
C1567      C1568   1.394       .  A
C1567      H1579   1.084       .  S
C1568      H1580   1.083       .  S
C1569      C1570   1.208       .  T
C1570      C1571   1.444       .  S
C1571      C1572   1.398       .  A
C1571      C1576   1.402       .  A
C1572      C1573   1.395       .  A
C1572      H1581   1.084       .  S
C1573      C1574   1.409       .  A
C1573      H1582   1.083       .  S
C1574      C1575   1.409       .  A
C1575      C1576   1.405       .  A
C1575      H1583   1.083       .  S
C1576      H1584   1.083       .  S
