geometry optimzed in LAMMPS
_audit_creation_date              2020-11-30 
_audit_creation_method            'lammps2cif' 
_symmetry_space_group_name_H-M    'P1' 
_symmetry_Int_Tables_number       1 
_symmetry_cell_setting            triclinic 
loop_ 
_symmetry_equiv_pos_as_xyz 
  x,y,z 
_cell_length_a                    51.231812398066424 
_cell_length_b                    48.16961169061361 
_cell_length_c                    49.86819546930936 
_cell_angle_alpha                 90.09721390868401 
_cell_angle_beta                  90.4134750624747 
_cell_angle_gamma                 89.94608800406058 
loop_ 
_atom_site_label 
_atom_site_type_symbol 
_atom_site_fract_x 
_atom_site_fract_y 
_atom_site_fract_z 
_atom_site_charge 
N1          N  0.16012207  0.21677961  0.03160442    -0.07580
N2          N  0.18166536  0.20297162  0.03843895    -0.59700
N3          N  0.13588683  0.19850266  0.47501352    -0.07260
N4          N  0.14044069  0.17566667  0.46155894    -0.61830
N5          N  0.15543714  0.21616284  0.47277884    -0.06860
N6          N  0.17436515  0.20447229  0.45853124    -0.59670
N7          N  0.13966904  0.20047522  0.03527200    -0.06530
N8          N  0.14679780  0.17669453  0.04571844    -0.62180
C9          C  0.17279877  0.17801498  0.04720601     0.94600
C10         C  0.16415409  0.17948976  0.45120955     0.94380
N11         N  0.05798099  0.21617627  0.47527868    -0.07760
N12         N  0.04823622  0.21706146  0.45049235    -0.60280
N13         N  0.07940800  0.19967977  0.03985319    -0.05880
N14         N  0.08263468  0.18937585  0.06420076    -0.61530
N15         N  0.05956565  0.21684065  0.03927885    -0.07790
N16         N  0.04888549  0.21850096  0.06321810    -0.60540
N17         N  0.07675072  0.19767767  0.47654456    -0.05530
N18         N  0.07988836  0.18560492  0.45311195    -0.61620
Mn19       Mn  0.10739779  0.19881642  0.00704044     1.18440
C20         C  0.06193966  0.19740578  0.43694882     0.96680
C21         C  0.06324557  0.20113281  0.07859368     0.97340
N22         N  0.15280940  0.28657460  0.47182511    -0.07810
N23         N  0.17048526  0.30118413  0.45830064    -0.64120
N24         N  0.13661576  0.30229528  0.03337142    -0.06620
N25         N  0.14236622  0.32639179  0.04411357    -0.64800
N26         N  0.15772614  0.28669880  0.03111741    -0.07320
N27         N  0.17837694  0.30100085  0.03961806    -0.64390
N28         N  0.13123068  0.30134658  0.47327722    -0.06220
N29         N  0.13328444  0.32457490  0.46014885    -0.65080
Mn30       Mn  0.15756574  0.25163233  0.50165871     1.10660
C31         C  0.15749020  0.32484654  0.45081954     0.97900
C32         C  0.16824851  0.32570802  0.04768277     0.97980
N33         N  0.05894583  0.27941320  0.04036826    -0.07330
N34         N  0.05129850  0.27720889  0.06571095    -0.62700
N35         N  0.07320312  0.29863694  0.47555329    -0.06650
N36         N  0.07489699  0.31021430  0.45170618    -0.59430
N37         N  0.05533858  0.27921192  0.47556571    -0.07960
N38         N  0.04441063  0.27716150  0.45147505    -0.62270
N39         N  0.07698631  0.29860018  0.03870260    -0.06940
N40         N  0.08165736  0.30982069  0.06233530    -0.59450
Mn41       Mn  0.05635299  0.24790838  0.00750607     1.20190
Mn42       Mn  0.10393642  0.30028774  0.50550175     1.10090
Cl43       Cl  0.10695032  0.24958256  0.00548089    -0.87420
C44         C  0.06562518  0.29653181  0.07924089     0.94910
C45         C  0.05693830  0.29666994  0.43694341     0.94710
N46         N  0.44049641  0.21937763  0.03646632    -0.07580
N47         N  0.44891673  0.22105374  0.06171833    -0.59700
N48         N  0.42276774  0.20173468  0.47125212    -0.07260
N49         N  0.41988882  0.19118016  0.44699563    -0.61830
N50         N  0.44167717  0.22002026  0.47173662    -0.06860
N51         N  0.45193848  0.22223006  0.44754337    -0.59670
N52         N  0.42197770  0.20066704  0.03464801    -0.06530
N53         N  0.41769977  0.18930753  0.05821128    -0.62180
C54         C  0.43466799  0.20179039  0.07505669     0.94600
C55         C  0.43827159  0.20398116  0.43226955     0.94380
N56         N  0.34218487  0.21732680  0.47296945    -0.07760
N57         N  0.32148592  0.20344965  0.46387413    -0.60280
N58         N  0.36274302  0.19937798  0.03177449    -0.05880
N59         N  0.35800250  0.17645483  0.04491334    -0.61530
N60         N  0.34244744  0.21625101  0.03216202    -0.07790
N61         N  0.32295711  0.20403991  0.04510746    -0.60540
N62         N  0.36293572  0.20102961  0.47165136    -0.05530
N63         N  0.35696196  0.17712892  0.46068779    -0.61620
Mn64       Mn  0.39324930  0.20051746  0.00219561     1.18440
C65         C  0.33125534  0.17847154  0.45606188     0.96680
C66         C  0.33348426  0.17948926  0.05333748     0.97340
N67         N  0.44210832  0.28299780  0.47236999    -0.07810
N68         N  0.45157269  0.28096674  0.44773981    -0.64120
N69         N  0.42330211  0.30040897  0.03700836    -0.06620
N70         N  0.42073794  0.31089213  0.06135932    -0.64800
N71         N  0.44232836  0.28221752  0.03647518    -0.07320
N72         N  0.45334627  0.28021513  0.06045380    -0.64390
N73         N  0.42348158  0.30170972  0.47292754    -0.06220
N74         N  0.41994702  0.31259561  0.44886421    -0.65080
Mn75       Mn  0.44320381  0.25109035  0.00428888     1.10660
C76         C  0.43749568  0.29953121  0.43320955     0.97900
C77         C  0.43980726  0.29836386  0.07570704     0.97980
N78         N  0.34319334  0.28582046  0.03373059    -0.07330
N79         N  0.32328050  0.29801345  0.04594533    -0.62700
N80         N  0.36406770  0.30381412  0.47470446    -0.06650
N81         N  0.35986852  0.32718176  0.46213910    -0.59430
N82         N  0.34313599  0.28783933  0.47427288    -0.07960
N83         N  0.32379310  0.30134734  0.46188835    -0.62270
N84         N  0.36364600  0.30249773  0.03447436    -0.06940
N85         N  0.35836128  0.32539271  0.04755360    -0.59450
Mn86       Mn  0.34169930  0.25186466  0.00320687     1.20190
Mn87       Mn  0.39423454  0.30237828  0.00486432     1.10090
Cl88       Cl  0.39246294  0.25148416  0.00353671    -0.87420
C89         C  0.33347395  0.32240196  0.05481021     0.94910
C90         C  0.33503712  0.32566877  0.45404553     0.94710
N91         N  0.22508267  0.03631803  0.09720414    -0.07580
N92         N  0.21788000  0.04994596  0.07517350    -0.59700
N93         N  0.28134141  0.05282275  0.12292391    -0.07260
N94         N  0.29402055  0.07590516  0.11873355    -0.61830
N95         N  0.28239449  0.03628835  0.10184839    -0.06860
N96         N  0.29495178  0.04932322  0.08222347    -0.59670
N97         N  0.22261856  0.05292606  0.11815171    -0.06530
N98         N  0.21274178  0.07690762  0.11099019    -0.62180
C99         C  0.21018897  0.07522609  0.08436049     0.94600
C100        C  0.30247370  0.07390246  0.09353305     0.94380
N101        N  0.27932602  0.03578549  0.20296586    -0.07760
N102        N  0.30247096  0.03616052  0.21515384    -0.60280
N103        N  0.21752986  0.05275908  0.17935559    -0.05880
N104        N  0.19415314  0.06317090  0.17429307    -0.61530
N105        N  0.21658676  0.03479738  0.19908369    -0.07790
N106        N  0.19227336  0.03266241  0.20763254    -0.60540
N107        N  0.27902446  0.05402959  0.18347679    -0.05530
N108        N  0.30161541  0.06702170  0.18192367    -0.61620
Mn109      Mn  0.24996292  0.05319758  0.15150680     1.18440
C110        C  0.31600636  0.05619298  0.20201718     0.96680
C111        C  0.17845911  0.05067402  0.19214820     0.97340
N112        N  0.28188099  0.46584122  0.10356390    -0.07810
N113        N  0.29412623  0.45163096  0.08446529    -0.64120
N114        N  0.22196128  0.45065118  0.12054867    -0.06620
N115        N  0.21118798  0.42680992  0.11431755    -0.64800
N116        N  0.22437976  0.46647646  0.09906535    -0.07320
N117        N  0.21596121  0.45252691  0.07766056    -0.64390
N118        N  0.28063100  0.45033638  0.12527951    -0.06220
N119        N  0.29290145  0.42685325  0.12192148    -0.65080
Mn120      Mn  0.25354772  0.00115136  0.09953058     1.10660
C121        C  0.30118238  0.42734488  0.09658608     0.97900
C122        C  0.20776725  0.42785074  0.08774017     0.97980
N123        N  0.21674949  0.47161042  0.20160392    -0.07330
N124        N  0.19329175  0.47224136  0.21265579    -0.62700
N125        N  0.27851999  0.45169279  0.18584307    -0.06650
N126        N  0.30111228  0.43864371  0.18441430    -0.59430
N127        N  0.27936734  0.47138844  0.20402326    -0.07960
N128        N  0.30299304  0.47222109  0.21506915    -0.62270
N129        N  0.21719706  0.45292775  0.18243843    -0.06940
N130        N  0.19431717  0.44047830  0.18008205    -0.59450
Mn131      Mn  0.24814262  0.50352392  0.20360564     1.20190
Mn132      Mn  0.24931489  0.45136284  0.15393739     1.10090
Cl133      Cl  0.25023632  0.50228811  0.15188617    -0.87420
C134        C  0.17966675  0.45231709  0.19936761     0.94910
C135        C  0.31626686  0.45123597  0.20291554     0.94710
N136        N  0.21904479  0.03425120  0.30563511    -0.07580
N137        N  0.19546244  0.03406233  0.29450090    -0.59700
N138        N  0.28189798  0.05082406  0.32618765    -0.07260
N139        N  0.30578729  0.06051897  0.32991418    -0.61830
N140        N  0.28146613  0.03272045  0.30652825    -0.06860
N141        N  0.30515140  0.02987938  0.29659876    -0.59670
N142        N  0.21980139  0.05259048  0.32508773    -0.06530
N143        N  0.19688758  0.06489418  0.32779839    -0.62180
C144        C  0.18191571  0.05356752  0.30834548     0.94600
C145        C  0.32023330  0.04737003  0.31120814     0.94380
N146        N  0.27753053  0.03575295  0.40883440    -0.07760
N147        N  0.28664104  0.04904536  0.43033337    -0.60280
N148        N  0.22058153  0.05295615  0.38552962    -0.05880
N149        N  0.20783006  0.07603137  0.38968229    -0.61530
N150        N  0.21981916  0.03657822  0.40668344    -0.07790
N151        N  0.20722445  0.04963244  0.42633285    -0.60540
N152        N  0.27915195  0.05221477  0.38775360    -0.05530
N153        N  0.29002787  0.07589889  0.39428605    -0.61620
Mn154      Mn  0.25055918  0.05228333  0.35554065     1.18440
C155        C  0.29463634  0.07396761  0.42065885     0.96680
C156        C  0.19945892  0.07403895  0.41487332     0.97340
N157        N  0.28069862  0.46957912  0.30509644    -0.07810
N158        N  0.30386134  0.47032121  0.29355207    -0.64120
N159        N  0.21906748  0.45104746  0.32341809    -0.06620
N160        N  0.19583495  0.43928151  0.32517434    -0.64800
N161        N  0.21894586  0.47015363  0.30472676    -0.07320
N162        N  0.19559733  0.47163916  0.29346632    -0.64390
N163        N  0.28077248  0.45104920  0.32433661    -0.06220
N164        N  0.30387226  0.43894124  0.32631940    -0.65080
Mn165      Mn  0.24988569  0.00179446  0.30404377     1.10660
C166        C  0.31799683  0.45078309  0.30666821     0.97900
C167        C  0.18125785  0.45216772  0.30620688     0.97980
N168        N  0.21967993  0.46602986  0.40576064    -0.07330
N169        N  0.20772063  0.45308081  0.42573830    -0.62700
N170        N  0.27857733  0.45006365  0.38623586    -0.06650
N171        N  0.29256938  0.42790626  0.39123114    -0.59430
N172        N  0.27770113  0.46652295  0.40742564    -0.07960
N173        N  0.29062273  0.45478538  0.42766180    -0.62270
N174        N  0.22016643  0.44942939  0.38463899    -0.06940
N175        N  0.20811783  0.42602478  0.38941035    -0.59450
Mn176      Mn  0.24849071  0.00112732  0.40826058     1.20190
Mn177      Mn  0.24974971  0.45009206  0.35418185     1.10090
Cl178      Cl  0.24960155  0.00123705  0.35608435    -0.87420
C179        C  0.20047596  0.42831528  0.41482630     0.94910
C180        C  0.30025417  0.43102314  0.41677149     0.94710
N181        N  0.02912763  0.16551743  0.22240627    -0.07580
N182        N  0.04225588  0.18639928  0.21159387    -0.59700
N183        N  0.47012493  0.14468362  0.20516756    -0.07260
N184        N  0.45587230  0.14885433  0.18374933    -0.61830
N185        N  0.47041348  0.16668328  0.22087185    -0.06860
N186        N  0.45683004  0.18697929  0.20894881    -0.59670
N187        N  0.02939636  0.14412795  0.20583746    -0.06530
N188        N  0.04354061  0.14953307  0.18467641    -0.62180
C189        C  0.05179986  0.17567376  0.18838439     0.94600
C190        C  0.44739903  0.17499886  0.18588772     0.94380
N191        N  0.46683135  0.06245454  0.22382854    -0.07760
N192        N  0.44271953  0.05313355  0.22655878    -0.60280
N193        N  0.02902794  0.08058267  0.20422473    -0.05880
N194        N  0.05157851  0.08169136  0.19156427    -0.61530
N195        N  0.02905779  0.06051273  0.22187347    -0.07790
N196        N  0.05177820  0.04760713  0.22156683    -0.60540
N197        N  0.46736240  0.08184737  0.20534015    -0.05530
N198        N  0.44381150  0.08558325  0.19483551    -0.61620
Mn199      Mn  0.99908929  0.11242189  0.20479273     1.18440
C200        C  0.42865447  0.06729401  0.20800767     0.96680
C201        C  0.06567260  0.06074719  0.20238137     0.97340
N202        N  0.47041689  0.16486625  0.28820135    -0.07810
N203        N  0.45783179  0.18588297  0.29953451    -0.64120
N204        N  0.02913756  0.14172645  0.30434481    -0.06620
N205        N  0.04322725  0.14493614  0.32602043    -0.64800
N206        N  0.02889834  0.16444254  0.28966760    -0.07320
N207        N  0.04221925  0.18418763  0.30267476    -0.64390
N208        N  0.46992568  0.14312173  0.30432795    -0.06220
N209        N  0.45624669  0.14864628  0.32587324    -0.65080
Mn210      Mn  0.49970801  0.16666221  0.25531852     1.10660
C211        C  0.44845641  0.17508604  0.32269263     0.97900
C212        C  0.05149461  0.17120812  0.32523015     0.97980
N213        N  0.03112155  0.05963642  0.28331866    -0.07330
N214        N  0.05469541  0.04848454  0.28146527    -0.62700
N215        N  0.46918673  0.07844337  0.30314339    -0.06650
N216        N  0.44695438  0.07845134  0.31637652    -0.59430
N217        N  0.46926207  0.05880871  0.28496112    -0.07960
N218        N  0.44699394  0.04500144  0.28549582    -0.62270
N219        N  0.03087440  0.07851029  0.30236239    -0.06940
N220        N  0.05412106  0.08023845  0.31401766    -0.59450
Mn221      Mn  0.99908152  0.05886550  0.25333898     1.20190
Mn222      Mn  0.99959168  0.11014207  0.30386638     1.10090
Cl223      Cl  0.99933565  0.11228336  0.25438341    -0.87420
C224        C  0.06876057  0.06110967  0.30110821     0.94910
C225        C  0.43324859  0.05724812  0.30543557     0.94710
N226        N  0.02988987  0.44346736  0.22185141    -0.07580
N227        N  0.05319942  0.45523091  0.22261534    -0.59700
N228        N  0.46733855  0.42296229  0.20455669    -0.07260
N229        N  0.44370602  0.42041476  0.19385834    -0.61830
N230        N  0.46787553  0.44352552  0.22181922    -0.06860
N231        N  0.44466253  0.45534318  0.22305216    -0.59670
N232        N  0.02963478  0.42322177  0.20420068    -0.06530
N233        N  0.05272451  0.42090119  0.19263242    -0.62180
C234        C  0.06711508  0.44138567  0.20389937     0.94600
C235        C  0.42973142  0.44109881  0.20528408     0.94380
N236        N  0.47059117  0.33773153  0.22164779    -0.07760
N237        N  0.45976512  0.31589502  0.20959357    -0.60280
N238        N  0.02839401  0.35942889  0.20514200    -0.05880
N239        N  0.04220262  0.35370181  0.18379862    -0.61530
N240        N  0.02890773  0.33856519  0.22227885    -0.07790
N241        N  0.04249326  0.31767480  0.21176946    -0.60540
N242        N  0.46909894  0.35930397  0.20542294    -0.05530
N243        N  0.45622806  0.35298684  0.18343567    -0.61620
Mn244      Mn  0.49855146  0.39171887  0.20440585     1.18440
C245        C  0.45023850  0.32606136  0.18598801     0.96680
C246        C  0.05112750  0.32787747  0.18793580     0.97340
N247        N  0.46787142  0.44584987  0.28297870    -0.07810
N248        N  0.44465142  0.45786837  0.28157088    -0.64120
N249        N  0.02954456  0.42712691  0.30224448    -0.06620
N250        N  0.05253225  0.42523242  0.31427661    -0.64800
N251        N  0.03007132  0.44598923  0.28336871    -0.07320
N252        N  0.05359827  0.45726764  0.28227950    -0.64390
N253        N  0.46784462  0.42654984  0.30153265    -0.06220
N254        N  0.44476824  0.42513906  0.31314193    -0.65080
Mn255      Mn  0.49901445  0.44611497  0.25239563     1.10660
C256        C  0.43059839  0.44515893  0.30088025     0.97900
C257        C  0.06749173  0.44424508  0.30187656     0.97980
N258        N  0.02854361  0.34116828  0.29016474    -0.07330
N259        N  0.03863828  0.32096671  0.30525461    -0.62700
N260        N  0.46981399  0.36202779  0.30468378    -0.06650
N261        N  0.45635523  0.35654630  0.32642700    -0.59430
N262        N  0.47021955  0.34023678  0.28860046    -0.07960
N263        N  0.45767281  0.31930983  0.30006625    -0.62270
N264        N  0.02999749  0.36463177  0.30373744    -0.06940
N265        N  0.04288877  0.36131058  0.32623924    -0.59450
Mn266      Mn  0.49965771  0.33830922  0.25573588     1.20190
Mn267      Mn  0.49908476  0.39546440  0.30334012     1.10090
Cl268      Cl  0.49900876  0.39234460  0.25394574    -0.87420
C269        C  0.04760664  0.33412123  0.32780775     0.94910
C270        C  0.44855477  0.33005745  0.32345073     0.94710
C271        C  0.35878838  0.43177550  0.28669242    -0.10620
C272        C  0.34678773  0.44908862  0.30555425     0.05580
C273        C  0.36253177  0.46465667  0.32340485    -0.04380
C274        C  0.38983239  0.46368891  0.32138720    -0.08830
C275        C  0.40181615  0.44655925  0.30235890     0.04700
C276        C  0.38609021  0.42994006  0.28545683    -0.03860
Br277      Br  0.40117581  0.40313312  0.26168656    -0.03550
H278        H  0.34692557  0.41924837  0.27328613     0.08610
H279        H  0.40171208  0.47606328  0.33490699     0.06630
Br280      Br  0.34754427  0.48726459  0.35104135    -0.03980
C281        C  0.13934877  0.42975923  0.32008279    -0.10620
C282        C  0.15218922  0.44974124  0.30442362     0.05580
C283        C  0.13668983  0.46808348  0.28903161    -0.04380
C284        C  0.10945520  0.46658446  0.28995648    -0.08830
C285        C  0.09653487  0.44628309  0.30486787     0.04700
C286        C  0.11197174  0.42771672  0.32036764    -0.03860
Br287      Br  0.09773446  0.39905393  0.34261414    -0.03550
H288        H  0.15065445  0.41552803  0.33229224     0.08610
H289        H  0.09817855  0.48141908  0.27879078     0.06630
Br290      Br  0.15091394  0.49553356  0.26580579    -0.03980
C291        C  0.36287819  0.06442650  0.32962602    -0.10620
C292        C  0.34940078  0.04824113  0.31053447     0.05580
C293        C  0.36429075  0.03277834  0.29197605    -0.04380
C294        C  0.39147791  0.03507818  0.29173157    -0.08830
C295        C  0.40483607  0.05245555  0.30975596     0.04700
C296        C  0.39020921  0.06638190  0.32965301    -0.03860
Br297      Br  0.40591714  0.08760776  0.35811700    -0.03550
H298        H  0.35213412  0.07568700  0.34478748     0.08610
H299        H  0.40218785  0.02364469  0.27670249     0.06630
Br300      Br  0.34932802  0.00871797  0.26559444    -0.03980
C301        C  0.13778723  0.05355304  0.32981855    -0.10620
C302        C  0.15308007  0.05720512  0.30678393     0.05580
C303        C  0.14051245  0.06407931  0.28259271    -0.04380
C304        C  0.11312058  0.06418733  0.28081130    -0.08830
C305        C  0.09771145  0.05945386  0.30358616     0.04700
C306        C  0.11037961  0.05525853  0.32848304    -0.03860
Br307      Br  0.09111549  0.05135932  0.36109210    -0.03550
H308        H  0.14717105  0.04919230  0.34889227     0.08610
H309        H  0.10383934  0.06923358  0.26184467     0.06630
Br310      Br  0.16037392  0.07705027  0.25291571    -0.03980
C311        C  0.36072555  0.47077108  0.20941926    -0.10620
C312        C  0.34517384  0.44761795  0.20382773     0.05580
C313        C  0.35776324  0.42241845  0.19694608    -0.04380
C314        C  0.38520678  0.42098986  0.19619254    -0.08830
C315        C  0.40072099  0.44400329  0.20322714     0.04700
C316        C  0.38795438  0.46890819  0.21009740    -0.03860
Br317      Br  0.40648167  0.50131169  0.22052297    -0.03550
H318        H  0.35163036  0.49071733  0.21279170     0.08610
H319        H  0.39441466  0.40140816  0.19123270     0.06630
Br320      Br  0.33880358  0.38889857  0.18951398    -0.03980
C321        C  0.13509290  0.46342653  0.18220598    -0.10620
C322        C  0.15094016  0.44902085  0.20063335     0.05580
C323        C  0.13910831  0.43104123  0.21912041    -0.04380
C324        C  0.11178967  0.42855579  0.21971339    -0.08830
C325        C  0.09590310  0.44335230  0.20160067     0.04700
C326        C  0.10780218  0.46062106  0.18250288    -0.03860
Br327      Br  0.08739786  0.48169020  0.15736616    -0.03550
H328        H  0.14397992  0.47710814  0.16766898     0.08610
H329        H  0.10290049  0.41505345  0.23440403     0.06630
Br330      Br  0.15963940  0.40892742  0.24324367    -0.03980
C331        C  0.38431068  0.07303328  0.22815074    -0.10620
C332        C  0.39972362  0.06638362  0.20577329     0.05580
C333        C  0.38720034  0.05820471  0.18180461    -0.04380
C334        C  0.36000672  0.05469208  0.18112324    -0.08830
C335        C  0.34469394  0.06026743  0.20379620     0.04700
C336        C  0.35693066  0.07099748  0.22688686    -0.03860
Br337      Br  0.33662192  0.08635377  0.25536992    -0.03550
H338        H  0.39354569  0.08053946  0.24637822     0.08610
H339        H  0.35076802  0.04744823  0.16279458     0.06630
Br340      Br  0.40658052  0.05035405  0.14991963    -0.03980
C341        C  0.10802515  0.07626305  0.18243335    -0.10620
C342        C  0.09415667  0.05661233  0.19757983     0.05580
C343        C  0.10823573  0.03438976  0.20900562    -0.04380
C344        C  0.13520093  0.03231062  0.20551423    -0.08830
C345        C  0.14935874  0.05279521  0.19205041     0.04700
C346        C  0.13528818  0.07471301  0.17973228    -0.03860
Br347      Br  0.15170896  0.10385129  0.15979439    -0.03550
H348        H  0.09777362  0.09355861  0.17332289     0.08610
H349        H  0.14533860  0.01467148  0.21387469     0.06630
Br350      Br  0.09228009  0.00663709  0.23055050    -0.03980
C351        C  0.31192708  0.37762547  0.10124858    -0.10620
C352        C  0.30882492  0.40062051  0.08384652     0.05580
C353        C  0.31039365  0.39599092  0.05596364    -0.04380
C354        C  0.31590503  0.36917700  0.04646653    -0.08830
C355        C  0.31897390  0.34662235  0.06415493     0.04700
C356        C  0.31643302  0.35096527  0.09163538    -0.03860
Br357      Br  0.32103661  0.32134803  0.11692883    -0.03550
H358        H  0.31080013  0.38013117  0.12279012     0.08610
H359        H  0.31919828  0.36616117  0.02523299     0.06630
Br360      Br  0.30626284  0.42493813  0.02990267    -0.03980
C361        C  0.30671940  0.13700816  0.04773273    -0.10620
C362        C  0.32013324  0.15545949  0.06487677     0.05580
C363        C  0.32904274  0.14584888  0.08980600    -0.04380
C364        C  0.32526227  0.11827478  0.09706161    -0.08830
C365        C  0.31163945  0.09960785  0.08033426     0.04700
C366        C  0.30194600  0.10935659  0.05546648    -0.03860
Br367      Br  0.28131429  0.08660073  0.03193307    -0.03550
H368        H  0.30078049  0.14383540  0.02791033     0.08610
H369        H  0.33225168  0.11160426  0.11658941     0.06630
Br370      Br  0.34706175  0.16985828  0.11450165    -0.03980
C371        C  0.29691468  0.39300487  0.45034662    -0.10620
C372        C  0.31154181  0.40709884  0.43085440     0.05580
C373        C  0.33232211  0.39328149  0.41844108    -0.04380
C374        C  0.33763726  0.36579080  0.42467751    -0.08830
C375        C  0.32271664  0.35104953  0.44335324     0.04700
C376        C  0.30221402  0.36498870  0.45649893    -0.03860
Br377      Br  0.28114216  0.34686661  0.48281104    -0.03550
H378        H  0.28034002  0.40317588  0.45949870     0.08610
H379        H  0.35434744  0.35621478  0.41543378     0.06630
Br380      Br  0.35397019  0.41112111  0.39225816    -0.03980
C381        C  0.32698802  0.12797056  0.46394849    -0.10800
C382        C  0.31639849  0.15239965  0.45250379     0.05580
C383        C  0.29458364  0.15021960  0.43554519    -0.04380
C384        C  0.28597933  0.12387417  0.42764637    -0.08830
C385        C  0.29887653  0.09954142  0.43637316     0.04700
C386        C  0.31844868  0.10165562  0.45596519    -0.03860
Br387      Br  0.33628540  0.06964246  0.46972050    -0.03550
H388        H  0.34322037  0.12925760  0.47794264     0.08610
H389        H  0.27025058  0.12246557  0.41305806     0.06630
Br390      Br  0.27797667  0.18215816  0.42014650    -0.03980
C391        C  0.46133589  0.29623166  0.38956128    -0.10620
C392        C  0.43825128  0.30218630  0.40335733     0.05580
C393        C  0.41616728  0.31041394  0.38802721    -0.04380
C394        C  0.41888098  0.31780232  0.36095699    -0.08830
C395        C  0.44255781  0.31367668  0.34775020     0.04700
C396        C  0.46295969  0.30049698  0.36179340    -0.03860
Br397      Br  0.49331072  0.28840046  0.34349564    -0.03550
H398        H  0.47829342  0.28876063  0.40039574     0.08610
H399        H  0.40250891  0.32686852  0.35023708     0.06630
Br400      Br  0.38146957  0.30858218  0.40165263    -0.03980
C401        C  0.42063708  0.30011240  0.12167857    -0.10620
C402        C  0.44276633  0.30086206  0.10512477     0.05580
C403        C  0.46743789  0.30493273  0.11686033    -0.04380
C404        C  0.46970075  0.30906973  0.14452078    -0.08830
C405        C  0.44752469  0.30997642  0.16097314     0.04700
C406        C  0.42288298  0.30481669  0.14942512    -0.03860
Br407      Br  0.39182155  0.30626008  0.17054730    -0.03550
H408        H  0.40148646  0.29680996  0.11289314     0.08610
H409        H  0.48862246  0.31455263  0.15281610     0.06630
Br410      Br  0.49780048  0.31022797  0.09530819    -0.03980
C411        C  0.46099325  0.20675641  0.35935816    -0.10620
C412        C  0.44131783  0.19120161  0.34663837     0.05580
C413        C  0.41937136  0.18327165  0.36146263    -0.04380
C414        C  0.41839721  0.18865153  0.38899715    -0.08830
C415        C  0.43924512  0.20184530  0.40245964     0.04700
C416        C  0.46020246  0.21202355  0.38703559    -0.03860
Br417      Br  0.48979092  0.23022152  0.40269157    -0.03550
H418        H  0.47833909  0.21238114  0.34831118     0.08610
H419        H  0.40160241  0.18142496  0.40004245     0.06630
Br420      Br  0.39118168  0.16309191  0.34509703    -0.03980
C421        C  0.42337878  0.16947872  0.14372907    -0.10620
C422        C  0.43618038  0.18801746  0.16121103     0.05580
C423        C  0.44496505  0.21338565  0.15058849    -0.04380
C424        C  0.44345967  0.21826397  0.12264693    -0.08830
C425        C  0.43407500  0.19765904  0.10482323     0.04700
C426        C  0.42329695  0.17328906  0.11600764    -0.03860
Br427      Br  0.41152609  0.14199113  0.09511183    -0.03550
H428        H  0.41620251  0.14988557  0.15140870     0.08610
H429        H  0.45066556  0.23772520  0.11478355     0.06630
Br430      Br  0.46041084  0.24093043  0.17317003    -0.03980
C431        C  0.19564384  0.35362177  0.43670202    -0.10620
C432        C  0.16892804  0.35166746  0.44195794     0.05580
C433        C  0.15347205  0.37642764  0.44047988    -0.04380
C434        C  0.16511624  0.40195323  0.43514082    -0.08830
C435        C  0.19146147  0.40359135  0.42913748     0.04700
C436        C  0.20670238  0.37906332  0.42938128    -0.03860
Br437      Br  0.24213326  0.37864878  0.41743431    -0.03550
H438        H  0.20778464  0.33520685  0.43733722     0.08610
H439        H  0.15301586  0.42034740  0.43333238     0.06630
Br440      Br  0.11594955  0.37820534  0.44310213    -0.03980
C441        C  0.17191677  0.11505636  0.41156706    -0.10620
C442        C  0.18903816  0.09934056  0.42764056     0.05580
C443        C  0.20111427  0.11228884  0.44992375    -0.04380
C444        C  0.19508585  0.14010437  0.45611329    -0.08830
C445        C  0.17785671  0.15552091  0.43982010     0.04700
C446        C  0.16675390  0.14282522  0.41716006    -0.03860
Br447      Br  0.14448247  0.16305524  0.39302339    -0.03550
H448        H  0.16341384  0.10598207  0.39360918     0.08610
H449        H  0.20305677  0.14935537  0.47421930     0.06630
Br450      Br  0.22668049  0.09360086  0.47161485    -0.03980
C451        C  0.18413997  0.40226899  0.05184484    -0.10620
C452        C  0.20278556  0.40220244  0.07232789     0.05580
C453        C  0.21389716  0.37654472  0.08055953    -0.04380
C454        C  0.20384660  0.35149525  0.07076562    -0.08830
C455        C  0.18299058  0.35154609  0.05265547     0.04700
C456        C  0.17428849  0.37722685  0.04183081    -0.03860
Br457      Br  0.14873717  0.37977724  0.01356364    -0.03550
H458        H  0.17607117  0.42174646  0.04476078     0.08610
H459        H  0.21130238  0.33201864  0.07852432     0.06630
Br460      Br  0.24250689  0.37410460  0.10555700    -0.03980
C461        C  0.18844722  0.10151944  0.04778172    -0.10620
C462        C  0.20697213  0.10075206  0.06835559     0.05580
C463        C  0.21887095  0.12593745  0.07684704    -0.04380
C464        C  0.20930532  0.15143332  0.06768097    -0.08830
C465        C  0.18820214  0.15224148  0.04992155     0.04700
C466        C  0.17907842  0.12700987  0.03838121    -0.03860
Br467      Br  0.15280675  0.12567962  0.01070270    -0.03550
H468        H  0.17976498  0.08241101  0.04050166     0.08610
H469        H  0.21703546  0.17054443  0.07601762     0.06630
Br470      Br  0.24739306  0.12714096  0.10204253    -0.03980
C471        C  0.03423401  0.32195068  0.40161674    -0.10620
C472        C  0.05284707  0.30215824  0.40829534     0.05580
C473        C  0.06965963  0.29179937  0.38828280    -0.04380
C474        C  0.06706378  0.30107032  0.36161453    -0.08830
C475        C  0.04872956  0.32165842  0.35501749     0.04700
C476        C  0.03235330  0.33225774  0.37567868    -0.03860
Br477      Br  0.00649005  0.36094102  0.37092569    -0.03550
H478        H  0.02178921  0.33047395  0.41709097     0.08610
H479        H  0.08014389  0.29322804  0.34640626     0.06630
Br480      Br  0.09743105  0.26654619  0.39692447    -0.03980
C481        C  0.05100621  0.28369292  0.12584381    -0.10620
C482        C  0.06647303  0.30045573  0.10911419     0.05580
C483        C  0.08220324  0.32116608  0.12154908    -0.04380
C484        C  0.07971947  0.32663179  0.14895219    -0.08830
C485        C  0.06182218  0.31227242  0.16483160     0.04700
C486        C  0.04852913  0.28952505  0.15341471    -0.03860
Br487      Br  0.02473426  0.26791052  0.17401628    -0.03550
H488        H  0.03958487  0.26701428  0.11721796     0.08610
H489        H  0.09017906  0.34415143  0.15746977     0.06630
Br490      Br  0.10633174  0.34481864  0.10300888    -0.03980
C491        C  0.05289001  0.21337979  0.38943782    -0.10620
C492        C  0.06166951  0.19267758  0.40733674     0.05580
C493        C  0.07201710  0.16796648  0.39638287    -0.04380
C494        C  0.07284840  0.16428853  0.36868102    -0.08830
C495        C  0.06128053  0.18338020  0.35089560     0.04700
C496        C  0.05233005  0.20873882  0.36145258    -0.03860
Br497      Br  0.03840464  0.23682787  0.33859237    -0.03550
H498        H  0.04610590  0.23306172  0.39722266     0.08610
H499        H  0.07996742  0.14458397  0.36111937     0.06630
Br500      Br  0.08214535  0.13630532  0.41758824    -0.03980
C501        C  0.08324436  0.19103918  0.12328163    -0.10620
C502        C  0.06127091  0.19940456  0.10823262     0.05580
C503        C  0.03799578  0.20583824  0.12194094    -0.04380
C504        C  0.03663689  0.20211582  0.14970320    -0.08830
C505        C  0.05800029  0.19180362  0.16434342     0.04700
C506        C  0.08166583  0.18710046  0.15104516    -0.03860
Br507      Br  0.11151129  0.17278084  0.16984835    -0.03550
H508        H  0.10150619  0.18656752  0.11334772     0.08610
H509        H  0.01792489  0.20453129  0.15946497     0.06630
Br510      Br  0.00634247  0.21632002  0.10387543    -0.03980
N511        N  0.16012093  0.21679033  0.53159947    -0.07580
N512        N  0.18166608  0.20298478  0.53843324    -0.59700
N513        N  0.13589148  0.19847877  0.97502182    -0.07260
N514        N  0.14044794  0.17563094  0.96158664    -0.61830
N515        N  0.15544742  0.21613234  0.97278684    -0.06860
N516        N  0.17438127  0.20442410  0.95855932    -0.59670
N517        N  0.13967013  0.20048259  0.53526545    -0.06530
N518        N  0.14680182  0.17670161  0.54570938    -0.62180
C519        C  0.17280262  0.17802581  0.54719819     0.94600
C520        C  0.16416903  0.17943748  0.95125053     0.94380
N521        N  0.05798350  0.21617177  0.97528013    -0.07760
N522        N  0.04823832  0.21705737  0.95049409    -0.60280
N523        N  0.07940867  0.19968048  0.53985061    -0.05880
N524        N  0.08263689  0.18937540  0.56419759    -0.61530
N525        N  0.05956452  0.21683927  0.53927770    -0.07790
N526        N  0.04888463  0.21849660  0.56321719    -0.60540
N527        N  0.07675216  0.19767172  0.97654615    -0.05530
N528        N  0.07988871  0.18559857  0.95311342    -0.61620
Mn529      Mn  0.10739729  0.19882494  0.50703633     1.18440
C530        C  0.06194011  0.19740062  0.93695059     0.96680
C531        C  0.06324667  0.20112915  0.57859154     0.97340
N532        N  0.15282040  0.28655540  0.97181868    -0.07810
N533        N  0.17049748  0.30116633  0.95829663    -0.64120
N534        N  0.13660466  0.30230501  0.53337936    -0.06620
N535        N  0.14235516  0.32640109  0.54412242    -0.64800
N536        N  0.15771540  0.28670900  0.53112450    -0.07320
N537        N  0.17836606  0.30101065  0.53962544    -0.64390
N538        N  0.13124125  0.30132742  0.97326855    -0.06220
N539        N  0.13329569  0.32455521  0.96013958    -0.65080
Mn540      Mn  0.15757390  0.25161509  0.00165750     1.10660
C541        C  0.15750245  0.32482851  0.95081364     0.97900
C542        C  0.16823757  0.32571711  0.54769121     0.97980
N543        N  0.05893765  0.27941255  0.54037258    -0.07330
N544        N  0.05129256  0.27720435  0.56571574    -0.62700
N545        N  0.07321352  0.29862884  0.97554768    -0.06650
N546        N  0.07490681  0.31020545  0.95170024    -0.59430
N547        N  0.05534594  0.27920721  0.97556246    -0.07960
N548        N  0.04441488  0.27715831  0.95147321    -0.62270
N549        N  0.07697475  0.29860321  0.53870751    -0.06940
N550        N  0.08164534  0.30982250  0.56234064    -0.59450
Mn551      Mn  0.05634781  0.24791022  0.50750737     1.20190
Mn552      Mn  0.10394766  0.30027741  0.00549494     1.10090
Cl553      Cl  0.10694364  0.24959227  0.50548352    -0.87420
C554        C  0.06561706  0.29652880  0.57924622     0.94910
C555        C  0.05694424  0.29666415  0.93693987     0.94710
N556        N  0.44049896  0.21938053  0.53646528    -0.07580
N557        N  0.44891952  0.22105550  0.56171725    -0.59700
N558        N  0.42276399  0.20172922  0.97125290    -0.07260
N559        N  0.41988424  0.19117638  0.94699565    -0.61830
N560        N  0.44167331  0.22001496  0.97173775    -0.06860
N561        N  0.45193392  0.22222622  0.94754445    -0.59670
N562        N  0.42197923  0.20067098  0.53464656    -0.06530
N563        N  0.41770079  0.18931121  0.55820966    -0.62180
C564        C  0.43466990  0.20179269  0.57505523     0.94600
C565        C  0.43826677  0.20397845  0.93226988     0.94380
N566        N  0.34217844  0.21731089  0.97297651    -0.07760
N567        N  0.32148004  0.20342527  0.96389122    -0.60280
N568        N  0.36274366  0.19938245  0.53176953    -0.05880
N569        N  0.35800091  0.17645774  0.54490516    -0.61530
N570        N  0.34244863  0.21625622  0.53215655    -0.07790
N571        N  0.32295653  0.20404416  0.54509862    -0.60540
N572        N  0.36293237  0.20101824  0.97165630    -0.05530
N573        N  0.35696106  0.17711335  0.96070009    -0.61620
Mn574      Mn  0.39325161  0.20052341  0.50219286     1.18440
C575        C  0.33125289  0.17844705  0.95608269     0.96680
C576        C  0.33348178  0.17949182  0.55332685     0.97340
N577        N  0.44210210  0.28299214  0.97236853    -0.07810
N578        N  0.45156735  0.28096166  0.94773866    -0.64120
N579        N  0.42330851  0.30041308  0.53701022    -0.06620
N580        N  0.42074411  0.31089550  0.56136138    -0.64800
N581        N  0.44233388  0.28222059  0.53647687    -0.07320
N582        N  0.45335094  0.28021670  0.56045581    -0.64390
N583        N  0.42347437  0.30170288  0.97292543    -0.06220
N584        N  0.41993992  0.31258862  0.94886206    -0.65080
Mn585      Mn  0.44320851  0.25109459  0.50428907     1.10660
C586        C  0.43748971  0.29952529  0.93320798     0.97900
C587        C  0.43981227  0.29836563  0.57570923     0.97980
N588        N  0.34319961  0.28582603  0.53373163    -0.07330
N589        N  0.32328692  0.29801783  0.54594760    -0.62700
N590        N  0.36406016  0.30380358  0.97470213    -0.06650
N591        N  0.35986009  0.32717119  0.96213706    -0.59430
N592        N  0.34312827  0.28782879  0.97427232    -0.07960
N593        N  0.32378433  0.30133757  0.96188997    -0.62270
N594        N  0.36365237  0.30250319  0.53447659    -0.06940
N595        N  0.35836780  0.32539689  0.54755801    -0.59450
Mn596      Mn  0.34170487  0.25187392  0.50320459     1.20190
Mn597      Mn  0.39424147  0.30238520  0.50486651     1.10090
Cl598      Cl  0.39246806  0.25149070  0.50353646    -0.87420
C599        C  0.33348051  0.32240534  0.55481470     0.94910
C600        C  0.33502793  0.32565899  0.95404603     0.94710
N601        N  0.22507358  0.03632060  0.59719582    -0.07580
N602        N  0.21787401  0.04995221  0.57516600    -0.59700
N603        N  0.28133307  0.05282299  0.62291332    -0.07260
N604        N  0.29401072  0.07590631  0.61872223    -0.61830
N605        N  0.28238456  0.03628932  0.60183710    -0.06860
N606        N  0.29493923  0.04932573  0.58221118    -0.59670
N607        N  0.22261007  0.05292713  0.61814474    -0.06530
N608        N  0.21273594  0.07691050  0.61098475    -0.62180
C609        C  0.21018504  0.07523265  0.58435469     0.94600
C610        C  0.30246126  0.07390507  0.59352069     0.94380
N611        N  0.27932083  0.03578299  0.70295719    -0.07760
N612        N  0.30246602  0.03615592  0.71514469    -0.60280
N613        N  0.21752426  0.05275824  0.67934919    -0.05880
N614        N  0.19414724  0.06316939  0.67428700    -0.61530
N615        N  0.21658168  0.03479718  0.69907783    -0.07790
N616        N  0.19226859  0.03266229  0.70762766    -0.60540
N617        N  0.27902062  0.05402602  0.68346712    -0.05530
N618        N  0.30161314  0.06701511  0.68191264    -0.61620
Mn619      Mn  0.24995645  0.05319659  0.65149861     1.18440
C620        C  0.31600338  0.05618559  0.70200642     0.96680
C621        C  0.17845374  0.05067286  0.69214290     0.97340
N622        N  0.28188276  0.46584144  0.60357050    -0.07810
N623        N  0.29412913  0.45163197  0.58447217    -0.64120
N624        N  0.22196234  0.45065237  0.62055421    -0.06620
N625        N  0.21118696  0.42681236  0.61432269    -0.64800
N626        N  0.22438104  0.46647823  0.59907140    -0.07320
N627        N  0.21596024  0.45253076  0.57766644    -0.64390
N628        N  0.28063195  0.45033607  0.62528567    -0.06220
N629        N  0.29290273  0.42685312  0.62192765    -0.65080
Mn630      Mn  0.25353773  0.00115120  0.59952087     1.10660
C631        C  0.30118494  0.42734569  0.59659270     0.97900
C632        C  0.20776485  0.42785507  0.58774552     0.97980
N633        N  0.21674959  0.47161081  0.70160895    -0.07330
N634        N  0.19329160  0.47224182  0.71266029    -0.62700
N635        N  0.27852001  0.45169262  0.68584911    -0.06650
N636        N  0.30111224  0.43864351  0.68442027    -0.59430
N637        N  0.27936753  0.47138860  0.70402898    -0.07960
N638        N  0.30299337  0.47222142  0.71507454    -0.62270
N639        N  0.21719753  0.45292793  0.68244365    -0.06940
N640        N  0.19431775  0.44047836  0.68008693    -0.59450
Mn641      Mn  0.24814284  0.50352430  0.70361099     1.20190
Mn642      Mn  0.24931553  0.45136287  0.65394311     1.10090
Cl643      Cl  0.25023736  0.50228830  0.65189191    -0.87420
C644        C  0.17966693  0.45231734  0.69937202     0.94910
C645        C  0.31626702  0.45123607  0.70292109     0.94710
N646        N  0.21905758  0.03429278  0.80556130    -0.07580
N647        N  0.19548047  0.03411566  0.79441307    -0.59700
N648        N  0.28187171  0.05086632  0.82614930    -0.07260
N649        N  0.30576402  0.06054880  0.82989791    -0.61830
N650        N  0.28145732  0.03276862  0.80647179    -0.06860
N651        N  0.30515055  0.02992898  0.79656466    -0.59670
N652        N  0.21978835  0.05259930  0.82505424    -0.06530
N653        N  0.19686883  0.06488815  0.82776369    -0.62180
C654        C  0.18191612  0.05359020  0.80828186     0.94600
C655        C  0.32022349  0.04740490  0.81119758     0.94380
N656        N  0.27758995  0.03573756  0.90876087    -0.07760
N657        N  0.28670881  0.04900586  0.93027089    -0.60280
N658        N  0.22055726  0.05292215  0.88551613    -0.05880
N659        N  0.20778898  0.07598101  0.88969443    -0.61530
N660        N  0.21985901  0.03654480  0.90666626    -0.07790
N661        N  0.20728771  0.04958035  0.92634464    -0.60540
N662        N  0.27914892  0.05224178  0.88771237    -0.05530
N663        N  0.28999937  0.07593241  0.89426567    -0.61620
Mn664      Mn  0.25052213  0.05231213  0.85554634     1.18440
C665        C  0.29465129  0.07396096  0.92062713     0.96680
C666        C  0.19946973  0.07397864  0.91490283     0.97340
N667        N  0.28069858  0.46957900  0.80510193    -0.07810
N668        N  0.30386122  0.47032097  0.79355737    -0.64120
N669        N  0.21906711  0.45104719  0.82342282    -0.06620
N670        N  0.19583456  0.43928114  0.82517867    -0.64800
N671        N  0.21894572  0.47015320  0.80473137    -0.07320
N672        N  0.19559740  0.47163855  0.79347043    -0.64390
N673        N  0.28077262  0.45104952  0.82434247    -0.06220
N674        N  0.30387249  0.43894169  0.82632533    -0.65080
Mn675      Mn  0.24990399  0.00180990  0.80391542     1.10660
C676        C  0.31799690  0.45078321  0.80667378     0.97900
C677        C  0.18125773  0.45216714  0.80621081     0.97980
N678        N  0.21967875  0.46602667  0.90576658    -0.07330
N679        N  0.20772303  0.45307350  0.92574434    -0.62700
N680        N  0.27857597  0.45006300  0.88624202    -0.06650
N681        N  0.29256619  0.42790433  0.89123740    -0.59430
N682        N  0.27769903  0.46652130  0.90743259    -0.07960
N683        N  0.29061812  0.45478129  0.92766930    -0.62270
N684        N  0.22016535  0.44942788  0.88464357    -0.06940
N685        N  0.20811999  0.42602116  0.88941407    -0.59450
Mn686      Mn  0.24856529  0.00112139  0.90814965     1.20190
Mn687      Mn  0.24974911  0.45009202  0.85418712     1.10090
Cl688      Cl  0.24964286  0.00130543  0.85575125    -0.87420
C689        C  0.20048049  0.42830761  0.91483098     0.94910
C690        C  0.30024896  0.43101881  0.91677861     0.94710
N691        N  0.02912742  0.16551402  0.72240359    -0.07580
N692        N  0.04225776  0.18639481  0.71159195    -0.59700
N693        N  0.47012098  0.14468368  0.70517133    -0.07260
N694        N  0.45586915  0.14885383  0.68375243    -0.61830
N695        N  0.47041146  0.16668495  0.72087354    -0.06860
N696        N  0.45683037  0.18698127  0.70894815    -0.59670
N697        N  0.02939443  0.14412498  0.70583417    -0.06530
N698        N  0.04353959  0.14952921  0.68467356    -0.62180
C699        C  0.05180117  0.17566896  0.68838231     0.94600
C700        C  0.44739858  0.17499962  0.68588796     0.94380
N701        N  0.46682644  0.06245499  0.72383688    -0.07760
N702        N  0.44271537  0.05313084  0.72656431    -0.60280
N703        N  0.02902251  0.08057989  0.70421801    -0.05880
N704        N  0.05157330  0.08168845  0.69155792    -0.61530
N705        N  0.02905126  0.06050858  0.72186524    -0.07790
N706        N  0.05177116  0.04760184  0.72155781    -0.60540
N707        N  0.46735780  0.08184658  0.70534733    -0.05530
N708        N  0.44380790  0.08557882  0.69483915    -0.61620
Mn709      Mn  0.99908547  0.11242078  0.70478872     1.18440
C710        C  0.42865121  0.06728830  0.70801021     0.96680
C711        C  0.06566648  0.06074279  0.70237361     0.97340
N712        N  0.47041579  0.16487208  0.78820333    -0.07810
N713        N  0.45782893  0.18588886  0.79953435    -0.64120
N714        N  0.02913881  0.14172113  0.80434075    -0.06620
N715        N  0.04322721  0.14492979  0.82601739    -0.64800
N716        N  0.02889911  0.16443857  0.78966550    -0.07320
N717        N  0.04221810  0.18418340  0.80267535    -0.64390
N718        N  0.46992493  0.14312880  0.80433140    -0.06220
N719        N  0.45624441  0.14865393  0.82587547    -0.65080
Mn720      Mn  0.49970657  0.16666518  0.75531996     1.10660
C721        C  0.44845276  0.17509292  0.82269263     0.97900
C722        C  0.05149307  0.17120245  0.82523019     0.97980
N723        N  0.03111581  0.05963087  0.78330815    -0.07330
N724        N  0.05468955  0.04848104  0.78144673    -0.62700
N725        N  0.46918340  0.07845212  0.80315332    -0.06650
N726        N  0.44695179  0.07846369  0.81638803    -0.59430
N727        N  0.46925590  0.05881643  0.78497200    -0.07960
N728        N  0.44698612  0.04501204  0.78550920    -0.62270
N729        N  0.03087293  0.07850487  0.80235192    -0.06940
N730        N  0.05412326  0.08023521  0.81399903    -0.59450
Mn731      Mn  0.99907562  0.05886276  0.75333175     1.20190
Mn732      Mn  0.99959149  0.11013798  0.80386141     1.10090
Cl733      Cl  0.99933317  0.11228093  0.75437894    -0.87420
C734        C  0.06875959  0.06110750  0.80108433     0.94910
C735        C  0.43324293  0.05726157  0.80544945     0.94710
N736        N  0.02988999  0.44346639  0.72185213    -0.07580
N737        N  0.05319946  0.45523010  0.72261605    -0.59700
N738        N  0.46733844  0.42296292  0.70455858    -0.07260
N739        N  0.44370583  0.42041552  0.69386043    -0.61830
N740        N  0.46787562  0.44352609  0.72182115    -0.06860
N741        N  0.44466270  0.45534385  0.72305434    -0.59670
N742        N  0.02963514  0.42322043  0.70420179    -0.06530
N743        N  0.05272501  0.42089970  0.69263383    -0.62180
C744        C  0.06711536  0.44138453  0.70390053     0.94600
C745        C  0.42973142  0.44109961  0.70528636     0.94380
N746        N  0.47059147  0.33773211  0.72164964    -0.07760
N747        N  0.45976543  0.31589551  0.70959567    -0.60280
N748        N  0.02839301  0.35942704  0.70514383    -0.05880
N749        N  0.04220185  0.35369834  0.68380102    -0.61530
N750        N  0.02890564  0.33856399  0.72228140    -0.07790
N751        N  0.04249066  0.31767259  0.71177345    -0.60540
N752        N  0.46909872  0.35930457  0.70542489    -0.05530
N753        N  0.45622740  0.35298735  0.68343793    -0.61620
Mn754      Mn  0.49855128  0.39171948  0.70440723     1.18440
C755        C  0.45023825  0.32606175  0.68599036     0.96680
C756        C  0.05112571  0.32787377  0.68793971     0.97340
N757        N  0.46787149  0.44584976  0.78298062    -0.07810
N758        N  0.44465137  0.45786809  0.78157308    -0.64120
N759        N  0.02954395  0.42712618  0.80224526    -0.06620
N760        N  0.05253157  0.42523135  0.81427755    -0.64800
N761        N  0.03007114  0.44598841  0.78336940    -0.07320
N762        N  0.05359829  0.45726639  0.78228031    -0.64390
N763        N  0.46784495  0.42654959  0.80153447    -0.06220
N764        N  0.44476866  0.42513858  0.81314395    -0.65080
Mn765      Mn  0.49901456  0.44611534  0.75239736     1.10660
C766        C  0.43059856  0.44515842  0.80088251     0.97900
C767        C  0.06749145  0.44424370  0.80187751     0.97980
N768        N  0.02854114  0.34116786  0.79016531    -0.07330
N769        N  0.03863661  0.32096588  0.80525394    -0.62700
N770        N  0.46981510  0.36202749  0.80468527    -0.06650
N771        N  0.45635594  0.35654579  0.82642821    -0.59430
N772        N  0.47022056  0.34023680  0.78860159    -0.07960
N773        N  0.45767319  0.31930987  0.80006666    -0.62270
N774        N  0.02999498  0.36463088  0.80373875    -0.06940
N775        N  0.04288651  0.36130898  0.82624030    -0.59450
Mn776      Mn  0.49965848  0.33830964  0.75573693     1.20190
Mn777      Mn  0.49908548  0.39546449  0.80334153     1.10090
Cl778      Cl  0.49900919  0.39234501  0.75394712    -0.87420
C779        C  0.04760510  0.33411966  0.82780732     0.94910
C780        C  0.44855496  0.33005718  0.82345118     0.94710
C781        C  0.35878795  0.43177540  0.78669676    -0.10620
C782        C  0.34678785  0.44908843  0.80555908     0.05580
C783        C  0.36253252  0.46465643  0.82340916    -0.04380
C784        C  0.38983309  0.46368857  0.82139064    -0.08830
C785        C  0.40181629  0.44655894  0.80236191     0.04700
C786        C  0.38608976  0.42993992  0.78546026    -0.03860
Br787      Br  0.40117460  0.40313317  0.76168929    -0.03550
H788        H  0.34692471  0.41924840  0.77329075     0.08610
H789        H  0.40171320  0.47606288  0.83491009     0.06630
Br790      Br  0.34754591  0.48726455  0.85104600    -0.03980
C791        C  0.13934834  0.42975813  0.82008544    -0.10620
C792        C  0.15218908  0.44974036  0.80442674     0.05580
C793        C  0.13668991  0.46808247  0.78903432    -0.04380
C794        C  0.10945522  0.46658319  0.78995837    -0.08830
C795        C  0.09653462  0.44628166  0.80486937     0.04700
C796        C  0.11197125  0.42771536  0.82036946    -0.03860
Br797      Br  0.09773352  0.39905227  0.84261527    -0.03550
H798        H  0.15065376  0.41552703  0.83229510     0.08610
H799        H  0.09817892  0.48141755  0.77879264     0.06630
Br800      Br  0.15091430  0.49553294  0.76580909    -0.03980
C801        C  0.36286730  0.06446076  0.82962671    -0.10620
C802        C  0.34939255  0.04826590  0.81054099     0.05580
C803        C  0.36428666  0.03278483  0.79199845    -0.04380
C804        C  0.39147371  0.03508242  0.79175797    -0.08830
C805        C  0.40482951  0.05247236  0.80977190     0.04700
C806        C  0.39019958  0.06641173  0.82965883    -0.03860
Br807      Br  0.40590554  0.08764897  0.85811566    -0.03550
H808        H  0.35212008  0.07573329  0.84477753     0.08610
H809        H  0.40218598  0.02363545  0.77674000     0.06630
Br810      Br  0.34933413  0.00869375  0.76563551    -0.03980
C811        C  0.13779357  0.05352921  0.82976009    -0.10620
C812        C  0.15307893  0.05721077  0.80672430     0.05580
C813        C  0.14050357  0.06411381  0.78254497    -0.04380
C814        C  0.11311100  0.06421899  0.78077345    -0.08830
C815        C  0.09771048  0.05945596  0.80354900     0.04700
C816        C  0.11038629  0.05523332  0.82843642    -0.03860
Br817      Br  0.09113294  0.05129936  0.86104834    -0.03550
H818        H  0.14718350  0.04914932  0.84882656     0.08610
H819        H  0.10382232  0.06928622  0.76181587     0.06630
Br820      Br  0.16035331  0.07712846  0.75287713    -0.03980
C821        C  0.36072567  0.47077154  0.70942337    -0.10620
C822        C  0.34517398  0.44761826  0.70383250     0.05580
C823        C  0.35776330  0.42241886  0.69695035    -0.04380
C824        C  0.38520679  0.42099049  0.69619585    -0.08830
C825        C  0.40072102  0.44400401  0.70323001     0.04700
C826        C  0.38795449  0.46890885  0.71010063    -0.03860
Br827      Br  0.40648184  0.50131252  0.72052561    -0.03550
H828        H  0.35163047  0.49071776  0.71279598     0.08610
H829        H  0.39441464  0.40140885  0.69123571     0.06630
Br830      Br  0.33880370  0.38889880  0.68951878    -0.03980
C831        C  0.13509343  0.46342701  0.68220966    -0.10620
C832        C  0.15094035  0.44902093  0.70063705     0.05580
C833        C  0.13910824  0.43104024  0.71912296    -0.04380
C834        C  0.11178963  0.42855428  0.71971496    -0.08830
C835        C  0.09590338  0.44335127  0.70160234     0.04700
C836        C  0.10780274  0.46062101  0.68250556    -0.03860
Br837      Br  0.08739885  0.48169059  0.65736883    -0.03550
H838        H  0.14398068  0.47710928  0.66767339     0.08610
H839        H  0.10290022  0.41505122  0.73440484     0.06630
Br840      Br  0.15963896  0.40892583  0.74324603    -0.03980
C841        C  0.38430525  0.07302158  0.72814892    -0.10620
C842        C  0.39972069  0.06637508  0.70577253     0.05580
C843        C  0.38720004  0.05819918  0.68180138    -0.04380
C844        C  0.36000631  0.05468673  0.68111631    -0.08830
C845        C  0.34469104  0.06025934  0.70378815     0.04700
C846        C  0.35692548  0.07098598  0.72688142    -0.03860
Br847      Br  0.33661391  0.08634397  0.75536079    -0.03550
H848        H  0.39353809  0.08052630  0.74637813     0.08610
H849        H  0.35076951  0.04744567  0.66278564     0.06630
Br850      Br  0.40658369  0.05035486  0.64991722    -0.03980
C851        C  0.10801885  0.07625731  0.68242425    -0.10620
C852        C  0.09415086  0.05660811  0.69757299     0.05580
C853        C  0.10823074  0.03438765  0.70900167    -0.04380
C854        C  0.13519627  0.03230967  0.70551180    -0.08830
C855        C  0.14935331  0.05279261  0.69204485     0.04700
C856        C  0.13528189  0.07470779  0.67972331    -0.03860
Br857      Br  0.15170138  0.10384327  0.65978054    -0.03550
H858        H  0.09776681  0.09355112  0.67331130     0.08610
H859        H  0.14533444  0.01467182  0.71387423     0.06630
Br860      Br  0.09227544  0.00663511  0.73054662    -0.03980
C861        C  0.31193235  0.37762702  0.60125454    -0.10620
C862        C  0.30882888  0.40062209  0.58385281     0.05580
C863        C  0.31039732  0.39599306  0.55596982    -0.04380
C864        C  0.31590970  0.36917963  0.54647223    -0.08830
C865        C  0.31898010  0.34662499  0.56416030     0.04700
C866        C  0.31643954  0.35096726  0.59164088    -0.03860
Br867      Br  0.32104479  0.32134977  0.61693373    -0.03550
H868        H  0.31080552  0.38013240  0.62279613     0.08610
H869        H  0.31920242  0.36616419  0.52523855     0.06630
Br870      Br  0.30626431  0.42494028  0.52990919    -0.03980
C871        C  0.30671008  0.13701384  0.54772276    -0.10620
C872        C  0.32012944  0.15546193  0.56486565     0.05580
C873        C  0.32904005  0.14584832  0.58979351    -0.04380
C874        C  0.32525546  0.11827462  0.59704870    -0.08830
C875        C  0.31162775  0.09961081  0.58032234     0.04700
C876        C  0.30193243  0.10936282  0.55545644    -0.03860
Br877      Br  0.28129166  0.08661241  0.53192646    -0.03550
H878        H  0.30076946  0.14384314  0.52790158     0.08610
H879        H  0.33224606  0.11160195  0.61657536     0.06630
Br880      Br  0.34706563  0.16985313  0.61448830    -0.03980
C881        C  0.29690776  0.39299793  0.95035218    -0.10620
C882        C  0.31153524  0.40709259  0.93086052     0.05580
C883        C  0.33231454  0.39327453  0.91844604    -0.04380
C884        C  0.33762794  0.36578284  0.92468015    -0.08830
C885        C  0.32270734  0.35104101  0.94335552     0.04700
C886        C  0.30220584  0.36498078  0.95650266    -0.03860
Br887      Br  0.28113322  0.34685782  0.98281352    -0.03550
H888        H  0.28033357  0.40316910  0.95950497     0.08610
H889        H  0.35433720  0.35620640  0.91543509     0.06630
Br890      Br  0.35396392  0.41111462  0.89226450    -0.03980
C891        C  0.32701685  0.12793558  0.96393589    -0.10800
C892        C  0.31640238  0.15236975  0.95252441     0.05580
C893        C  0.29456309  0.15019254  0.93559856    -0.04380
C894        C  0.28596074  0.12384918  0.92769089    -0.08830
C895        C  0.29888464  0.09951540  0.93637436     0.04700
C896        C  0.31847938  0.10162270  0.95594300    -0.03860
Br897      Br  0.33634551  0.06960666  0.96965135    -0.03550
H898        H  0.34326624  0.12921817  0.97790936     0.08610
H899        H  0.27021283  0.12244561  0.91312397     0.06630
Br900      Br  0.27791624  0.18213413  0.92025093    -0.03980
C901        C  0.46133238  0.29622793  0.88956113    -0.10620
C902        C  0.43824688  0.30218159  0.90335596     0.05580
C903        C  0.41616381  0.31041043  0.88802495    -0.04380
C904        C  0.41887917  0.31780036  0.86095531    -0.08830
C905        C  0.44255691  0.31367583  0.84774995     0.04700
C906        C  0.46295812  0.30049571  0.86179379    -0.03860
Br907      Br  0.49331127  0.28840273  0.84349783    -0.03550
H908        H  0.47828925  0.28875610  0.90039620     0.08610
H909        H  0.40250772  0.32686709  0.85023482     0.06630
Br910      Br  0.38146528  0.30857937  0.90164839    -0.03980
C911        C  0.42063989  0.30011303  0.62167963    -0.10620
C912        C  0.44277002  0.30086264  0.60512707     0.05580
C913        C  0.46744096  0.30493335  0.61686385    -0.04380
C914        C  0.46970249  0.30906996  0.64452441    -0.08830
C915        C  0.44752556  0.30997679  0.66097553     0.04700
C916        C  0.42288436  0.30481738  0.64942624    -0.03860
Br917      Br  0.39182178  0.30626176  0.67054663    -0.03550
H918        H  0.40148968  0.29681093  0.61289313     0.08610
H919        H  0.48862380  0.31455281  0.65282075     0.06630
Br920      Br  0.49780415  0.31023008  0.59531304    -0.03980
C921        C  0.46099027  0.20675978  0.85935974    -0.10620
C922        C  0.44131336  0.19120952  0.84663738     0.05580
C923        C  0.41936478  0.18328192  0.86145956    -0.04380
C924        C  0.41839062  0.18865760  0.88899498    -0.08830
C925        C  0.43924012  0.20184600  0.90245978     0.04700
C926        C  0.46019911  0.21202356  0.88703761    -0.03860
Br927      Br  0.48978944  0.23021573  0.90269636    -0.03550
H928        H  0.47833748  0.21238293  0.84831425     0.08610
H929        H  0.40159439  0.18143252  0.90003890     0.06630
Br930      Br  0.39117159  0.16311220  0.84508891    -0.03980
C931        C  0.42338281  0.16947798  0.64372643    -0.10620
C932        C  0.43618263  0.18801726  0.66120934     0.05580
C933        C  0.44496641  0.21338620  0.65058755    -0.04380
C934        C  0.44346103  0.21826524  0.62264605    -0.08830
C935        C  0.43407756  0.19766030  0.60482164     0.04700
C936        C  0.42330130  0.17328912  0.61600513    -0.03860
Br937      Br  0.41153375  0.14199087  0.59510787    -0.03550
H938        H  0.41620716  0.14988425  0.65140526     0.08610
H939        H  0.45066595  0.23772714  0.61478326     0.06630
Br940      Br  0.46041089  0.24093123  0.67316984    -0.03980
C941        C  0.19565460  0.35360903  0.93669750    -0.10620
C942        C  0.16893934  0.35165188  0.94195532     0.05580
C943        C  0.15348200  0.37641169  0.94048098    -0.04380
C944        C  0.16512454  0.40193914  0.93514553    -0.08830
C945        C  0.19146911  0.40358029  0.92914011     0.04700
C946        C  0.20671093  0.37905257  0.92937834    -0.03860
Br947      Br  0.24213932  0.37864083  0.91742390    -0.03550
H948        H  0.20779633  0.33519468  0.93732878     0.08610
H949        H  0.15302292  0.42033277  0.93334066     0.06630
Br950      Br  0.11595930  0.37818746  0.94310322    -0.03980
C951        C  0.17191314  0.11498752  0.91162512    -0.10620
C952        C  0.18904710  0.09927366  0.92768757     0.05580
C953        C  0.20112851  0.11222470  0.94996686    -0.04380
C954        C  0.19509847  0.14004122  0.95615848    -0.08830
C955        C  0.17786563  0.15545808  0.93986827     0.04700
C956        C  0.16675486  0.14275798  0.91721479    -0.03860
Br957      Br  0.14448301  0.16298636  0.89307675    -0.03550
H958        H  0.16340110  0.10591247  0.89367210     0.08610
H959        H  0.20307439  0.14929384  0.97426134     0.06630
Br960      Br  0.22670150  0.09353890  0.97165038    -0.03980
C961        C  0.18413248  0.40227675  0.55185214    -0.10620
C962        C  0.20278092  0.40220841  0.57233243     0.05580
C963        C  0.21389289  0.37655023  0.58056167    -0.04380
C964        C  0.20383926  0.35150172  0.57076945    -0.08830
C965        C  0.18298035  0.35155438  0.55266290     0.04700
C966        C  0.17427846  0.37723548  0.54183907    -0.03860
Br967      Br  0.14872534  0.37978734  0.51357357    -0.03550
H968        H  0.17606379  0.42175486  0.54476960     0.08610
H969        H  0.21129535  0.33202453  0.57852650     0.06630
Br970      Br  0.24250726  0.37410857  0.60555346    -0.03980
C971        C  0.18845520  0.10153146  0.54777012    -0.10620
C972        C  0.20697175  0.10076169  0.56835212     0.05580
C973        C  0.21886717  0.12594674  0.57685048    -0.04380
C974        C  0.20930452  0.15144370  0.56768319    -0.08830
C975        C  0.18820881  0.15225374  0.54991437     0.04700
C976        C  0.17909058  0.12702316  0.53836752    -0.03860
Br977      Br  0.15283132  0.12569752  0.51067640    -0.03550
H978        H  0.17977619  0.08242383  0.54048404     0.08610
H979        H  0.21703076  0.17055400  0.57602539     0.06630
Br980      Br  0.24738199  0.12714847  0.60205496    -0.03980
C981        C  0.03423513  0.32194343  0.90161556    -0.10620
C982        C  0.05285056  0.30215287  0.90829244     0.05580
C983        C  0.06966326  0.29179668  0.88827883    -0.04380
C984        C  0.06706562  0.30106872  0.86161123    -0.08830
C985        C  0.04872936  0.32165528  0.85501602     0.04700
C986        C  0.03235273  0.33225181  0.87567813    -0.03860
Br987      Br  0.00648764  0.36093356  0.87092727    -0.03550
H988        H  0.02179019  0.33046468  0.91709071     0.08610
H989        H  0.08014589  0.29322861  0.84640207     0.06630
Br990      Br  0.09743657  0.26654496  0.89691799    -0.03980
C991        C  0.05100027  0.28368849  0.62584937    -0.10620
C992        C  0.06646739  0.30045057  0.60911952     0.05580
C993        C  0.08220022  0.32115897  0.62155420    -0.04380
C994        C  0.07971805  0.32662434  0.64895734    -0.08830
C995        C  0.06181980  0.31226677  0.66483682     0.04700
C996        C  0.04852496  0.28952031  0.65342044    -0.03860
Br997      Br  0.02473048  0.26790657  0.67402317    -0.03550
H998        H  0.03957716  0.26701116  0.61722366     0.08610
H999        H  0.09017934  0.34414288  0.65747485     0.06630
Br1000     Br  0.10633077  0.34480949  0.60301433    -0.03980
C1001       C  0.05289285  0.21337550  0.88943904    -0.10620
C1002       C  0.06166762  0.19267159  0.90733869     0.05580
C1003       C  0.07200813  0.16795699  0.89638591    -0.04380
C1004       C  0.07284029  0.16427839  0.86868423    -0.08830
C1005       C  0.06127737  0.18337251  0.85089761     0.04700
C1006       C  0.05233170  0.20873364  0.86145380    -0.03860
Br1007     Br  0.03841138  0.23682541  0.83859313    -0.03550
H1008       H  0.04611274  0.23305926  0.89722335     0.08610
H1009       H  0.07995540  0.14457178  0.86112373     0.06630
Br1010     Br  0.08212151  0.13629211  0.91759336    -0.03980
C1011       C  0.08324575  0.19103318  0.62327918    -0.10620
C1012       C  0.06127233  0.19939940  0.60823052     0.05580
C1013       C  0.03799753  0.20583366  0.62193937    -0.04380
C1014       C  0.03663921  0.20211202  0.64970171    -0.08830
C1015       C  0.05800238  0.19179886  0.66434155     0.04700
C1016       C  0.08166748  0.18709445  0.65104281    -0.03860
Br1017     Br  0.11151263  0.17277358  0.66984560    -0.03550
H1018       H  0.10150729  0.18656096  0.61334497     0.08610
H1019       H  0.01792747  0.20452832  0.65946383     0.06630
Br1020     Br  0.00634343  0.21631481  0.60387486    -0.03980
N1021       N  0.16013462  0.71680098  0.03159289    -0.07580
N1022       N  0.18167912  0.70299381  0.03842627    -0.59700
N1023       N  0.13588648  0.69850263  0.47501255    -0.07260
N1024       N  0.14044050  0.67566665  0.46155801    -0.61830
N1025       N  0.15543678  0.71616284  0.47277805    -0.06860
N1026       N  0.17436494  0.70447235  0.45853062    -0.59670
N1027       N  0.13968316  0.70049413  0.03525820    -0.06530
N1028       N  0.14681360  0.67671226  0.04570113    -0.62180
C1029       C  0.17281441  0.67803478  0.04719020     0.94600
C1030       C  0.16415399  0.67948979  0.45120884     0.94380
N1031       N  0.05798065  0.71617633  0.47527700    -0.07760
N1032       N  0.04823621  0.71706182  0.45049052    -0.60280
N1033       N  0.07942179  0.69969094  0.03984399    -0.05880
N1034       N  0.08264852  0.68938424  0.06419069    -0.61530
N1035       N  0.05957676  0.71684856  0.03927072    -0.07790
N1036       N  0.04889476  0.71850347  0.06320941    -0.60540
N1037       N  0.07675038  0.69767771  0.47654292    -0.05530
N1038       N  0.07988831  0.68560527  0.45311017    -0.61620
Mn1039     Mn  0.10741122  0.69883835  0.00702896     1.18440
C1040       C  0.06193982  0.69740631  0.43694689     0.96680
C1041       C  0.06325633  0.70113569  0.07858394     0.97340
N1042       N  0.15280896  0.78657455  0.47182449    -0.07810
N1043       N  0.17048490  0.80118414  0.45830021    -0.64120
N1044       N  0.13661302  0.80231267  0.03338172    -0.06620
N1045       N  0.14236006  0.82640680  0.04413016    -0.64800
N1046       N  0.15772529  0.78671914  0.03112690    -0.07320
N1047       N  0.17837391  0.80102156  0.03963147    -0.64390
N1048       N  0.13123021  0.80134650  0.47327649    -0.06220
N1049       N  0.13328405  0.82457487  0.46014822    -0.65080
Mn1050     Mn  0.15756518  0.75163223  0.50165801     1.10660
C1051       C  0.15748988  0.82484657  0.45081910     0.97900
C1052       C  0.16824219  0.82572535  0.04770030     0.97980
N1053       N  0.05894797  0.77942087  0.04036712    -0.07330
N1054       N  0.05130134  0.77721163  0.06570974    -0.62700
N1055       N  0.07320262  0.79863684  0.47555252    -0.06650
N1056       N  0.07489649  0.81021422  0.45170542    -0.59430
N1057       N  0.05533802  0.77921189  0.47556495    -0.07960
N1058       N  0.04440998  0.77716155  0.45147436    -0.62270
N1059       N  0.07698496  0.79861164  0.03870367    -0.06940
N1060       N  0.08165394  0.80983018  0.06233756    -0.59450
Mn1061     Mn  0.05636054  0.74792041  0.00750107     1.20190
Mn1062     Mn  0.10393587  0.80028756  0.50550095     1.10090
Cl1063     Cl  0.10695731  0.74960506  0.00547739    -0.87420
C1064       C  0.06562475  0.79653576  0.07924184     0.94910
C1065       C  0.05693770  0.79666993  0.43694274     0.94710
N1066       N  0.44049480  0.71937552  0.03646504    -0.07580
N1067       N  0.44891555  0.72104893  0.06171693    -0.59700
N1068       N  0.42276795  0.70173517  0.47125240    -0.07260
N1069       N  0.41988902  0.69118065  0.44699591    -0.61830
N1070       N  0.44167736  0.72002080  0.47173692    -0.06860
N1071       N  0.45193862  0.72223063  0.44754361    -0.59670
N1072       N  0.42197265  0.70066869  0.03464590    -0.06530
N1073       N  0.41769266  0.68930923  0.05820898    -0.62180
C1074       C  0.43466345  0.70178820  0.07505470     0.94600
C1075       C  0.43827172  0.70398169  0.43226977     0.94380
N1076       N  0.34218512  0.71732736  0.47296938    -0.07760
N1077       N  0.32148622  0.70345016  0.46387393    -0.60280
N1078       N  0.36273697  0.69938665  0.03176559    -0.05880
N1079       N  0.35799236  0.67646173  0.04489999    -0.61530
N1080       N  0.34244303  0.71626191  0.03215249    -0.07790
N1081       N  0.32294970  0.70405068  0.04509345    -0.60540
N1082       N  0.36293598  0.70103017  0.47165140    -0.05530
N1083       N  0.35696228  0.67712946  0.46068781    -0.61620
Mn1084     Mn  0.39324601  0.70052576  0.00219058     1.18440
C1085       C  0.33125569  0.67847204  0.45606173     0.96680
C1086       C  0.33347319  0.67949711  0.05332085     0.97340
N1087       N  0.44210877  0.78299839  0.47237130    -0.07810
N1088       N  0.45157327  0.78096742  0.44774120    -0.64120
N1089       N  0.42331199  0.80040924  0.03701464    -0.06620
N1090       N  0.42074809  0.81089128  0.06136591    -0.64800
N1091       N  0.44233574  0.78221493  0.03648088    -0.07320
N1092       N  0.45335229  0.78020921  0.06045998    -0.64390
N1093       N  0.42348209  0.80171037  0.47292886    -0.06220
N1094       N  0.41994766  0.81259639  0.44886558    -0.65080
Mn1095     Mn  0.44320806  0.75109082  0.00429096     1.10660
C1096       C  0.43749637  0.79953199  0.43321101     0.97900
C1097       C  0.43981481  0.79835905  0.07571362     0.97980
N1098       N  0.34320144  0.78583124  0.03373241    -0.07330
N1099       N  0.32329014  0.79802349  0.04595030    -0.62700
N1100       N  0.36406817  0.80381493  0.47470509    -0.06650
N1101       N  0.35986906  0.82718257  0.46213970    -0.59430
N1102       N  0.34313658  0.78783997  0.47427301    -0.07960
N1103       N  0.32379384  0.80134781  0.46188810    -0.62270
N1104       N  0.36365607  0.80250572  0.03447968    -0.06940
N1105       N  0.35837407  0.82539803  0.04756452    -0.59450
Mn1106     Mn  0.34170378  0.75188197  0.00320266     1.20190
Mn1107     Mn  0.39424653  0.80238643  0.00487070     1.10090
Cl1108     Cl  0.39246735  0.75149262  0.00353671    -0.87420
C1109       C  0.33348650  0.82240827  0.05482109     0.94910
C1110       C  0.33503783  0.82566933  0.45404559     0.94710
N1111       N  0.22507387  0.53632242  0.09718805    -0.07580
N1112       N  0.21787555  0.54995573  0.07515865    -0.59700
N1113       N  0.28133417  0.55282334  0.12290490    -0.07260
N1114       N  0.29401126  0.57590699  0.11871412    -0.61830
N1115       N  0.28238441  0.53629077  0.10182779    -0.06860
N1116       N  0.29493733  0.54932868  0.08220156    -0.59670
N1117       N  0.22261082  0.55292831  0.11813758    -0.06530
N1118       N  0.21273783  0.57691250  0.11097833    -0.62180
C1119       C  0.21018755  0.57523632  0.08434814     0.94600
C1120       C  0.30245983  0.57390757  0.09351181     0.94380
N1121       N  0.27932439  0.53578486  0.20294885    -0.07760
N1122       N  0.30246893  0.53616027  0.21513756    -0.60280
N1123       N  0.21752734  0.55275891  0.17934253    -0.05880
N1124       N  0.19415036  0.56317119  0.17428233    -0.61530
N1125       N  0.21658563  0.53479735  0.19907079    -0.07790
N1126       N  0.19227307  0.53266290  0.20762215    -0.60540
N1127       N  0.27902335  0.55402782  0.18345879    -0.05530
N1128       N  0.30161471  0.56701939  0.18190551    -0.61620
Mn1129     Mn  0.24995839  0.55319730  0.15149079     1.18440
C1130       C  0.31600506  0.55619154  0.20200017     0.96680
C1131       C  0.17845777  0.55067476  0.19213916     0.97340
N1132       N  0.28189050  0.96584155  0.10358419    -0.07810
N1133       N  0.29413971  0.95163417  0.08448646    -0.64120
N1134       N  0.22196852  0.95065323  0.12056400    -0.06620
N1135       N  0.21119273  0.92681405  0.11433072    -0.64800
N1136       N  0.22438854  0.96648030  0.09908230    -0.07320
N1137       N  0.21596754  0.95253538  0.07767625    -0.64390
N1138       N  0.28063729  0.95033453  0.12529808    -0.06220
N1139       N  0.29290883  0.92685199  0.12193982    -0.65080
Mn1140     Mn  0.25353785  0.50115195  0.09951207     1.10660
C1141       C  0.30119456  0.92734717  0.09660604     0.97900
C1142       C  0.20777119  0.92785972  0.08775369     0.97980
N1143       N  0.21675069  0.97161046  0.20161758    -0.07330
N1144       N  0.19329194  0.97224177  0.21266729    -0.62700
N1145       N  0.27852112  0.95169098  0.18586128    -0.06650
N1146       N  0.30111311  0.93864170  0.18443210    -0.59430
N1147       N  0.27936914  0.97138781  0.20404030    -0.07960
N1148       N  0.30299550  0.97222107  0.21508475    -0.62270
N1149       N  0.21719959  0.95292750  0.18245239    -0.06940
N1150       N  0.19431982  0.94047820  0.18009413    -0.59450
Mn1151     Mn  0.24814418  0.00352396  0.20362127     1.20190
Mn1152     Mn  0.24931914  0.95136199  0.15395397     1.10090
Cl1153     Cl  0.25024176  0.00228783  0.15190315    -0.87420
C1154       C  0.17966786  0.95231742  0.19937813     0.94910
C1155       C  0.31626857  0.95123499  0.20293160     0.94710
N1156       N  0.21904466  0.53425030  0.30563435    -0.07580
N1157       N  0.19546239  0.53406118  0.29450001    -0.59700
N1158       N  0.28189761  0.55082355  0.32618649    -0.07260
N1159       N  0.30578689  0.56051870  0.32991251    -0.61830
N1160       N  0.28146563  0.53271981  0.30652720    -0.06860
N1161       N  0.30515073  0.52987885  0.29659728    -0.59670
N1162       N  0.21980112  0.55258970  0.32508686    -0.06530
N1163       N  0.19688725  0.56489330  0.32779732    -0.62180
C1164       C  0.18191556  0.55356638  0.30834440     0.94600
C1165       C  0.32023266  0.54736975  0.31120626     0.94380
N1166       N  0.27753060  0.53575321  0.40883363    -0.07760
N1167       N  0.28664122  0.54904576  0.43033249    -0.60280
N1168       N  0.22058146  0.55295606  0.38552890    -0.05880
N1169       N  0.20783004  0.57603131  0.38968152    -0.61530
N1170       N  0.21981923  0.53657827  0.40668283    -0.07790
N1171       N  0.20722465  0.54963262  0.42633225    -0.60540
N1172       N  0.27915184  0.55221496  0.38775274    -0.05530
N1173       N  0.29002767  0.57589918  0.39428506    -0.61620
Mn1174     Mn  0.25055899  0.55228305  0.35553976     1.18440
C1175       C  0.29463636  0.57396802  0.42065784     0.96680
C1176       C  0.19945906  0.57403907  0.41487264     0.97340
N1177       N  0.28069894  0.96957967  0.30509682    -0.07810
N1178       N  0.30386178  0.97032180  0.29355266    -0.64120
N1179       N  0.21906755  0.95104790  0.32341826    -0.06620
N1180       N  0.19583501  0.93928200  0.32517467    -0.64800
N1181       N  0.21894581  0.97015428  0.30472711    -0.07320
N1182       N  0.19559713  0.97163996  0.29346697    -0.64390
N1183       N  0.28077263  0.95104953  0.32433680    -0.06220
N1184       N  0.30387236  0.93894144  0.32631961    -0.65080
Mn1185     Mn  0.24988548  0.50179376  0.30404321     1.10660
C1186       C  0.31799715  0.95078343  0.30666865     0.97900
C1187       C  0.18125770  0.95216845  0.30620755     0.97980
N1188       N  0.21967987  0.96602986  0.40576080    -0.07330
N1189       N  0.20772051  0.95308078  0.42573840    -0.62700
N1190       N  0.27857737  0.95006379  0.38623600    -0.06650
N1191       N  0.29256962  0.92790652  0.39123112    -0.59430
N1192       N  0.27770109  0.96652297  0.40742586    -0.07960
N1193       N  0.29062288  0.95478544  0.42766190    -0.62270
N1194       N  0.22016647  0.94942944  0.38463913    -0.06940
N1195       N  0.20811790  0.92602480  0.38941041    -0.59450
Mn1196     Mn  0.24849080  0.50112741  0.40826013     1.20190
Mn1197     Mn  0.24974979  0.95009229  0.35418199     1.10090
Cl1198     Cl  0.24960150  0.50123679  0.35608387    -0.87420
C1199       C  0.20047592  0.92831526  0.41482633     0.94910
C1200       C  0.30025450  0.93102337  0.41677145     0.94710
N1201       N  0.02912926  0.66551705  0.22240017    -0.07580
N1202       N  0.04225747  0.68639801  0.21158576    -0.59700
N1203       N  0.47012381  0.64468251  0.20516616    -0.07260
N1204       N  0.45587122  0.64885276  0.18374780    -0.61830
N1205       N  0.47041193  0.66668223  0.22087039    -0.06860
N1206       N  0.45682817  0.68697787  0.20894708    -0.59670
N1207       N  0.02939652  0.64412685  0.20583212    -0.06530
N1208       N  0.04353966  0.64953051  0.18466987    -0.62180
C1209       C  0.05179997  0.67567102  0.18837604     0.94600
C1210       C  0.44739749  0.67499709  0.18588595     0.94380
N1211       N  0.46682989  0.56245386  0.22382689    -0.07760
N1212       N  0.44271797  0.55313249  0.22655602    -0.60280
N1213       N  0.02902687  0.58058180  0.20422163    -0.05880
N1214       N  0.05157715  0.58169040  0.19156071    -0.61530
N1215       N  0.02905726  0.56051236  0.22187094    -0.07790
N1216       N  0.05177783  0.54760704  0.22156421    -0.60540
N1217       N  0.46736151  0.58184648  0.20533833    -0.05530
N1218       N  0.44381107  0.58558180  0.19483239    -0.61620
Mn1219     Mn  0.99908881  0.61242151  0.20478990     1.18440
C1220       C  0.42865354  0.56729254  0.20800394     0.96680
C1221       C  0.06567169  0.56074677  0.20237808     0.97340
N1222       N  0.47041529  0.66486551  0.28820058    -0.07810
N1223       N  0.45783079  0.68588238  0.29953423    -0.64120
N1224       N  0.02914005  0.64172700  0.30434111    -0.06620
N1225       N  0.04322908  0.64493679  0.32601718    -0.64800
N1226       N  0.02890130  0.66444305  0.28966375    -0.07320
N1227       N  0.04222158  0.68418825  0.30267155    -0.64390
N1228       N  0.46992433  0.64312096  0.30432718    -0.06220
N1229       N  0.45624601  0.64864565  0.32587291    -0.65080
Mn1230     Mn  0.49970635  0.66666159  0.25531762     1.10660
C1231       C  0.44845595  0.67508552  0.32269262     0.97900
C1232       C  0.05149628  0.67120881  0.32522730     0.97980
N1233       N  0.03112178  0.55963669  0.28331633    -0.07330
N1234       N  0.05469539  0.54848417  0.28146313    -0.62700
N1235       N  0.46918584  0.57844248  0.30314207    -0.06650
N1236       N  0.44695348  0.57845032  0.31637516    -0.59430
N1237       N  0.46926118  0.55880795  0.28495966    -0.07960
N1238       N  0.44699309  0.54500065  0.28549422    -0.62270
N1239       N  0.03087501  0.57851080  0.30235983    -0.06940
N1240       N  0.05412164  0.58023853  0.31401517    -0.59450
Mn1241     Mn  0.99908146  0.55886598  0.25333706     1.20190
Mn1242     Mn  0.99959318  0.61014339  0.30386348     1.10090
Cl1243     Cl  0.99933670  0.61228398  0.25438054    -0.87420
C1244       C  0.06876074  0.56110923  0.30110600     0.94910
C1245       C  0.43324775  0.55724717  0.30543405     0.94710
N1246       N  0.02989015  0.94346644  0.22185161    -0.07580
N1247       N  0.05319968  0.95522994  0.22261606    -0.59700
N1248       N  0.46733938  0.92296261  0.20455940    -0.07260
N1249       N  0.44370657  0.92041495  0.19386180    -0.61830
N1250       N  0.46787689  0.94352617  0.22182153    -0.06860
N1251       N  0.44466407  0.95534398  0.22305492    -0.59670
N1252       N  0.02963548  0.92322058  0.20420115    -0.06530
N1253       N  0.05272560  0.92089976  0.19263367    -0.62180
C1254       C  0.06711588  0.94138444  0.20390074     0.94600
C1255       C  0.42973249  0.94109935  0.20528757     0.94380
N1256       N  0.47059234  0.83773219  0.22165189    -0.07760
N1257       N  0.45976636  0.81589518  0.20959866    -0.60280
N1258       N  0.02839373  0.85942730  0.20514241    -0.05880
N1259       N  0.04220245  0.85369959  0.18379927    -0.61530
N1260       N  0.02890682  0.83856374  0.22227943    -0.07790
N1261       N  0.04249204  0.81767287  0.21177053    -0.60540
N1262       N  0.46909951  0.85930417  0.20542656    -0.05530
N1263       N  0.45622824  0.85298614  0.18343978    -0.61620
Mn1264     Mn  0.49855206  0.89171916  0.20440828     1.18440
C1265       C  0.45023924  0.82606056  0.18599305     0.96680
C1266       C  0.05112674  0.82787506  0.18793693     0.97340
N1267       N  0.46787235  0.94585084  0.28298085    -0.07810
N1268       N  0.44465220  0.95786906  0.28157288    -0.64120
N1269       N  0.02954438  0.92712612  0.30224456    -0.06620
N1270       N  0.05253198  0.92523163  0.31427691    -0.64800
N1271       N  0.03007129  0.94598849  0.28336883    -0.07320
N1272       N  0.05359823  0.95726695  0.28227990    -0.64390
N1273       N  0.46784561  0.92655087  0.30153488    -0.06220
N1274       N  0.44476915  0.92513987  0.31314402    -0.65080
Mn1275     Mn  0.49901555  0.94611582  0.25239769     1.10660
C1276       C  0.43059914  0.94515954  0.30088220     0.97900
C1277       C  0.06749154  0.94424435  0.30187704     0.97980
N1278       N  0.02854246  0.84116755  0.29016463    -0.07330
N1279       N  0.03863728  0.82096594  0.30525429    -0.62700
N1280       N  0.46981569  0.86202892  0.30468641    -0.06650
N1281       N  0.45635653  0.85654748  0.32642937    -0.59430
N1282       N  0.47022148  0.84023792  0.28860315    -0.07960
N1283       N  0.45767435  0.81931105  0.30006856    -0.62270
N1284       N  0.02999658  0.86463103  0.30373730    -0.06940
N1285       N  0.04288813  0.86130980  0.32623892    -0.59450
Mn1286     Mn  0.49965944  0.83831031  0.25573870     1.20190
Mn1287     Mn  0.49908609  0.89546576  0.30334252     1.10090
Cl1288     Cl  0.49901011  0.89234557  0.25394815    -0.87420
C1289       C  0.04760594  0.83412044  0.32780729     0.94910
C1290       C  0.44855597  0.83005867  0.32345284     0.94710
C1291       C  0.35878919  0.93177500  0.28669417    -0.10620
C1292       C  0.34678817  0.94908894  0.30555509     0.05580
C1293       C  0.36253199  0.96465749  0.32340552    -0.04380
C1294       C  0.38983266  0.96368989  0.32138818    -0.08830
C1295       C  0.40181679  0.94655956  0.30236066     0.04700
C1296       C  0.38609109  0.92993946  0.28545918    -0.03860
Br1297     Br  0.40117720  0.90313097  0.26169089    -0.03550
H1298       H  0.34692661  0.91924723  0.27328822     0.08610
H1299       H  0.40171211  0.97606480  0.33490771     0.06630
Br1300     Br  0.34754407  0.98726554  0.35104167    -0.03980
C1301       C  0.13934887  0.92975834  0.32008229    -0.10620
C1302       C  0.15218900  0.94974188  0.30442463     0.05580
C1303       C  0.13668920  0.96808529  0.28903437    -0.04380
C1304       C  0.10945463  0.96658579  0.28995929    -0.08830
C1305       C  0.09653463  0.94628273  0.30486877     0.04700
C1306       C  0.11197184  0.92771532  0.32036704    -0.03860
Br1307     Br  0.09773498  0.89905039  0.34261123    -0.03550
H1308       H  0.15065484  0.91552620  0.33229049     0.08610
H1309       H  0.09817764  0.98142161  0.27879512     0.06630
Br1310     Br  0.15091266  0.99553782  0.26581110    -0.03980
C1311       C  0.36287743  0.56442611  0.32962388    -0.10620
C1312       C  0.34940003  0.54824084  0.31053227     0.05580
C1313       C  0.36428992  0.53277779  0.29197390    -0.04380
C1314       C  0.39147711  0.53507740  0.29172971    -0.08830
C1315       C  0.40483524  0.55245468  0.30975422     0.04700
C1316       C  0.39020841  0.56638122  0.32965113    -0.03860
Br1317     Br  0.40591625  0.58760695  0.35811528    -0.03550
H1318       H  0.35213338  0.57568670  0.34478530     0.08610
H1319       H  0.40218711  0.52364377  0.27670080     0.06630
Br1320     Br  0.34932716  0.50871737  0.26559199    -0.03980
C1321       C  0.13778707  0.55355392  0.32981724    -0.10620
C1322       C  0.15308002  0.55720395  0.30678241     0.05580
C1323       C  0.14051263  0.56407594  0.28259051    -0.04380
C1324       C  0.11312079  0.56418419  0.28080897    -0.08830
C1325       C  0.09771153  0.55945284  0.30358414     0.04700
C1326       C  0.11037950  0.55525941  0.32848142    -0.03860
Br1327     Br  0.09111524  0.55136270  0.36109069    -0.03550
H1328       H  0.14717076  0.54919474  0.34889136     0.08610
H1329       H  0.10383970  0.56922903  0.26184191     0.06630
Br1330     Br  0.16037446  0.57704375  0.25291244    -0.03980
C1331       C  0.36072746  0.97077168  0.20942650    -0.10620
C1332       C  0.34517547  0.94761759  0.20384027     0.05580
C1333       C  0.35776420  0.92241766  0.19695871    -0.04380
C1334       C  0.38520755  0.92098940  0.19620136    -0.08830
C1335       C  0.40072217  0.94400355  0.20323245     0.04700
C1336       C  0.38795622  0.96890901  0.21010184    -0.03860
Br1337     Br  0.40648436  0.00131328  0.22052313    -0.03550
H1338       H  0.35163249  0.99071837  0.21279697     0.08610
H1339       H  0.39441508  0.90140740  0.19124191     0.06630
Br1340     Br  0.33880409  0.88889698  0.18953121    -0.03980
C1341       C  0.13509511  0.96342643  0.18221285    -0.10620
C1342       C  0.15094115  0.94902089  0.20064145     0.05580
C1343       C  0.13910812  0.93104023  0.21912676    -0.04380
C1344       C  0.11178948  0.92855414  0.21971730    -0.08830
C1345       C  0.09590407  0.94335077  0.20160361     0.04700
C1346       C  0.10780439  0.96062021  0.18250720    -0.03860
Br1347     Br  0.08740169  0.98168925  0.15736902    -0.03550
H1348       H  0.14398307  0.97710852  0.16767688     0.08610
H1349       H  0.10289936  0.91505125  0.23440687     0.06630
Br1350     Br  0.15963770  0.90892569  0.24325072    -0.03980
C1351       C  0.38430727  0.57302777  0.22814334    -0.10620
C1352       C  0.39972266  0.56638115  0.20576680     0.05580
C1353       C  0.38720165  0.55820593  0.18179562    -0.04380
C1354       C  0.36000787  0.55469454  0.18111040    -0.08830
C1355       C  0.34469260  0.56026700  0.20378222     0.04700
C1356       C  0.35692724  0.57099263  0.22687603    -0.03860
Br1357     Br  0.33661573  0.58634392  0.25535953    -0.03550
H1358       H  0.39354040  0.58053115  0.24637289     0.08610
H1359       H  0.35077106  0.54745346  0.16277974     0.06630
Br1360     Br  0.40658505  0.55035880  0.14991193    -0.03980
C1361       C  0.10802328  0.57626325  0.18242871    -0.10620
C1362       C  0.09415569  0.55661243  0.19757594     0.05580
C1363       C  0.10823552  0.53439041  0.20900167    -0.04380
C1364       C  0.13520060  0.53231157  0.20550907    -0.08830
C1365       C  0.14935749  0.55279603  0.19204390     0.04700
C1366       C  0.13528616  0.57471360  0.17972643    -0.03860
Br1367     Br  0.15170578  0.60385216  0.15978791    -0.03550
H1368       H  0.09777117  0.59355857  0.17331850     0.08610
H1369       H  0.14533889  0.51467290  0.21386976     0.06630
Br1370     Br  0.09228108  0.50663817  0.23054796    -0.03980
C1371       C  0.31195238  0.87763133  0.10126653    -0.10620
C1372       C  0.30884139  0.90062527  0.08386498     0.05580
C1373       C  0.31040195  0.89599547  0.05598149    -0.04380
C1374       C  0.31591266  0.86918203  0.04648289    -0.08830
C1375       C  0.31898882  0.84662809  0.06417062     0.04700
C1376       C  0.31645746  0.85097143  0.09165210    -0.03860
Br1377     Br  0.32107054  0.82135466  0.11694427    -0.03550
H1378       H  0.31083197  0.88013778  0.12280843     0.08610
H1379       H  0.31919914  0.86616602  0.02524827     0.06630
Br1380     Br  0.30625858  0.92494127  0.02992097    -0.03980
C1381       C  0.30670252  0.63701873  0.04771585    -0.10620
C1382       C  0.32011992  0.65546778  0.06485947     0.05580
C1383       C  0.32903069  0.64585435  0.08978733    -0.04380
C1384       C  0.32524911  0.61827987  0.09704135    -0.08830
C1385       C  0.31162351  0.59961500  0.08031422     0.04700
C1386       C  0.30192732  0.60936692  0.05544866    -0.03860
Br1387     Br  0.28128903  0.58661505  0.03191779    -0.03550
H1388       H  0.30076195  0.64384786  0.02789460     0.08610
H1389       H  0.33224046  0.61160734  0.11656778     0.06630
Br1390     Br  0.34705389  0.66986020  0.11448304    -0.03980
C1391       C  0.29691521  0.89300515  0.45034654    -0.10620
C1392       C  0.31154224  0.90709910  0.43085424     0.05580
C1393       C  0.33232253  0.89328179  0.41844084    -0.04380
C1394       C  0.33763779  0.86579115  0.42467733    -0.08830
C1395       C  0.32271727  0.85104993  0.44335316     0.04700
C1396       C  0.30221467  0.86498904  0.45649890    -0.03860
Br1397     Br  0.28114311  0.84686702  0.48281132    -0.03550
H1398       H  0.28034057  0.90317613  0.45949868     0.08610
H1399       H  0.35434797  0.85621513  0.41543356     0.06630
Br1400     Br  0.35397046  0.91112145  0.39225782    -0.03980
C1401       C  0.32698841  0.62797086  0.46394767    -0.10800
C1402       C  0.31639890  0.65240009  0.45250321     0.05580
C1403       C  0.29458411  0.65022014  0.43554449    -0.04380
C1404       C  0.28597982  0.62387477  0.42764539    -0.08830
C1405       C  0.29887688  0.59954190  0.43637208     0.04700
C1406       C  0.31844902  0.60165597  0.45596416    -0.03860
Br1407     Br  0.33628561  0.56964267  0.46971941    -0.03550
H1408       H  0.34322072  0.62925775  0.47794187     0.08610
H1409       H  0.27025108  0.62246632  0.41305705     0.06630
Br1410     Br  0.27797709  0.68215884  0.42014613    -0.03980
C1411       C  0.46133691  0.79623285  0.38956314    -0.10620
C1412       C  0.43825210  0.80218709  0.40335891     0.05580
C1413       C  0.41616807  0.81041438  0.38802868    -0.04380
C1414       C  0.41888190  0.81780291  0.36095855    -0.08830
C1415       C  0.44255895  0.81367775  0.34775207     0.04700
C1416       C  0.46296092  0.80049834  0.36179536    -0.03860
Br1417     Br  0.49331243  0.78840266  0.34349794    -0.03550
H1418       H  0.47829445  0.78876204  0.40039774     0.08610
H1419       H  0.40250980  0.82686886  0.35023849     0.06630
Br1420     Br  0.38147029  0.80858197  0.40165384    -0.03980
C1421       C  0.42064249  0.80010584  0.12168379    -0.10620
C1422       C  0.44277260  0.80085618  0.10513124     0.05580
C1423       C  0.46744319  0.80492994  0.11686753    -0.04380
C1424       C  0.46970447  0.80906852  0.14452779    -0.08830
C1425       C  0.44752746  0.80997454  0.16097886     0.04700
C1426       C  0.42288660  0.80481235  0.14943004    -0.03860
Br1427     Br  0.39182389  0.80625621  0.17055026    -0.03550
H1428       H  0.40149250  0.79680191  0.11289741     0.08610
H1429       H  0.48862538  0.81455359  0.15282373     0.06630
Br1430     Br  0.49780546  0.81022893  0.09531593    -0.03980
C1431       C  0.46099334  0.70675595  0.35935819    -0.10620
C1432       C  0.44131780  0.69120111  0.34663859     0.05580
C1433       C  0.41937135  0.68327143  0.36146302    -0.04380
C1434       C  0.41839729  0.68865164  0.38899750    -0.08830
C1435       C  0.43924522  0.70184556  0.40245982     0.04700
C1436       C  0.46020253  0.71202357  0.38703558    -0.03860
Br1437     Br  0.48979078  0.73022211  0.40269131    -0.03550
H1438       H  0.47833915  0.71238053  0.34831110     0.08610
H1439       H  0.40160248  0.68142527  0.40004290     0.06630
Br1440     Br  0.39118145  0.66309179  0.34509769    -0.03980
C1441       C  0.42337636  0.66947642  0.14372750    -0.10620
C1442       C  0.43617866  0.68801521  0.16120906     0.05580
C1443       C  0.44496371  0.71338300  0.15058596    -0.04380
C1444       C  0.44345730  0.71826118  0.12264447    -0.08830
C1445       C  0.43407102  0.69765666  0.10482121     0.04700
C1446       C  0.42329308  0.67328700  0.11600597    -0.03860
Br1447     Br  0.41152116  0.64198999  0.09510970    -0.03550
H1448       H  0.41620034  0.64988329  0.15140739     0.08610
H1449       H  0.45066373  0.73772200  0.11478071     0.06630
Br1450     Br  0.46041257  0.74092693  0.17316633    -0.03980
C1451       C  0.19564363  0.85362176  0.43670189    -0.10620
C1452       C  0.16892780  0.85166750  0.44195772     0.05580
C1453       C  0.15347188  0.87642774  0.44047976    -0.04380
C1454       C  0.16511614  0.90195331  0.43514076    -0.08830
C1455       C  0.19146138  0.90359135  0.42913745     0.04700
C1456       C  0.20670225  0.87906331  0.42938129    -0.03860
Br1457     Br  0.24213326  0.87864880  0.41743467    -0.03550
H1458       H  0.20778439  0.83520682  0.43733707     0.08610
H1459       H  0.15301581  0.92034752  0.43333236     0.06630
Br1460     Br  0.11594940  0.87820561  0.44310217    -0.03980
C1461       C  0.17191708  0.61505658  0.41156620    -0.10620
C1462       C  0.18903834  0.59934073  0.42763981     0.05580
C1463       C  0.20111423  0.61228891  0.44992318    -0.04380
C1464       C  0.19508572  0.64010441  0.45611277    -0.08830
C1465       C  0.17785674  0.65552100  0.43981946     0.04700
C1466       C  0.16675414  0.64282541  0.41715927    -0.03860
Br1467     Br  0.14448285  0.66305549  0.39302249    -0.03550
H1468       H  0.16341428  0.60598235  0.39360824     0.08610
H1469       H  0.20305644  0.64935533  0.47421891     0.06630
Br1470     Br  0.22668026  0.59360088  0.47161446    -0.03980
C1471       C  0.18412918  0.90228618  0.05186776    -0.10620
C1472       C  0.20278664  0.90221604  0.07233857     0.05580
C1473       C  0.21390413  0.87655830  0.08056019    -0.04380
C1474       C  0.20384915  0.85151036  0.07076863    -0.08830
C1475       C  0.18298183  0.85156402  0.05267229     0.04700
C1476       C  0.17427191  0.87724615  0.04185707    -0.03860
Br1477     Br  0.14870097  0.87980405  0.01360976    -0.03550
H1478       H  0.17605510  0.92176474  0.04479269     0.08610
H1479       H  0.21131070  0.83203274  0.07851915     0.06630
Br1480     Br  0.24252607  0.87411729  0.10554259    -0.03980
C1481       C  0.18846161  0.60153873  0.04776276    -0.10620
C1482       C  0.20697622  0.60076684  0.06834661     0.05580
C1483       C  0.21887229  0.62595105  0.07684677    -0.04380
C1484       C  0.20931268  0.65144904  0.06767842    -0.08830
C1485       C  0.18821902  0.65226135  0.04990711     0.04700
C1486       C  0.17909971  0.62703149  0.03835955    -0.03860
Br1487     Br  0.15284196  0.62570840  0.01066681    -0.03550
H1488       H  0.17978190  0.58243196  0.04047543     0.08610
H1489       H  0.21703944  0.67055857  0.07602180     0.06630
Br1490     Br  0.24738402  0.62715070  0.10205499    -0.03980
C1491       C  0.03423293  0.82194977  0.40161598    -0.10620
C1492       C  0.05284652  0.80215798  0.40829474     0.05580
C1493       C  0.06965945  0.79179943  0.38828240    -0.04380
C1494       C  0.06706349  0.80107011  0.36161410    -0.08830
C1495       C  0.04872878  0.82165763  0.35501691     0.04700
C1496       C  0.03235213  0.83225665  0.37567790    -0.03860
Br1497     Br  0.00648849  0.86093949  0.37092467    -0.03550
H1498       H  0.02178785  0.83047278  0.41709011     0.08610
H1499       H  0.08014389  0.79322816  0.34640594     0.06630
Br1500     Br  0.09743139  0.76654699  0.39692438    -0.03980
C1501       C  0.05100660  0.78369235  0.12584416    -0.10620
C1502       C  0.06647321  0.80045643  0.10911553     0.05580
C1503       C  0.08220404  0.82116547  0.12155188    -0.04380
C1504       C  0.07972035  0.82662943  0.14895519    -0.08830
C1505       C  0.06182246  0.81226981  0.16483346     0.04700
C1506       C  0.04852966  0.78952284  0.15341546    -0.03860
Br1507     Br  0.02473624  0.76790610  0.17401648    -0.03550
H1508       H  0.03958528  0.76701420  0.11721735     0.08610
H1509       H  0.09018020  0.84414835  0.15747385     0.06630
Br1510     Br  0.10633381  0.84481862  0.10301409    -0.03980
C1511       C  0.05289050  0.71338037  0.38943560    -0.10620
C1512       C  0.06166983  0.69267817  0.40733467     0.05580
C1513       C  0.07201732  0.66796700  0.39638082    -0.04380
C1514       C  0.07284884  0.66428904  0.36867894    -0.08830
C1515       C  0.06128133  0.68338078  0.35089330     0.04700
C1516       C  0.05233069  0.70873937  0.36145029    -0.03860
Br1517     Br  0.03840522  0.73682836  0.33859001    -0.03550
H1518       H  0.04610641  0.73306233  0.39722036     0.08610
H1519       H  0.07996793  0.64458447  0.36111739     0.06630
Br1520     Br  0.08214527  0.63630579  0.41758627    -0.03980
C1521       C  0.08324995  0.69103562  0.12327389    -0.10620
C1522       C  0.06127823  0.69940257  0.10822289     0.05580
C1523       C  0.03800155  0.70583490  0.12192958    -0.04380
C1524       C  0.03664013  0.70211143  0.14969169    -0.08830
C1525       C  0.05800215  0.69179908  0.16433388     0.04700
C1526       C  0.08166867  0.68709551  0.15103731    -0.03860
Br1527     Br  0.11151239  0.67277535  0.16984298    -0.03550
H1528       H  0.10151275  0.68656452  0.11334164     0.08610
H1529       H  0.01792733  0.70452700  0.15945185     0.06630
Br1530     Br  0.00634909  0.71631694  0.10386230    -0.03980
N1531       N  0.16012021  0.71679017  0.53159865    -0.07580
N1532       N  0.18166538  0.70298464  0.53843236    -0.59700
N1533       N  0.13590154  0.69852022  0.97500610    -0.07260
N1534       N  0.14045557  0.67568410  0.96155185    -0.61830
N1535       N  0.15545260  0.71618012  0.97277270    -0.06860
N1536       N  0.17438138  0.70448802  0.95852690    -0.59670
N1537       N  0.13966944  0.70048233  0.53526445    -0.06530
N1538       N  0.14680119  0.67670128  0.54570819    -0.62180
C1539       C  0.17280199  0.67802556  0.54719704     0.94600
C1540       C  0.16416991  0.67950559  0.95120447     0.94380
N1541       N  0.05799374  0.71618741  0.97527228    -0.07760
N1542       N  0.04824589  0.71707037  0.95048721    -0.60280
N1543       N  0.07940788  0.69968015  0.53984935    -0.05880
N1544       N  0.08263599  0.68937525  0.56419644    -0.61530
N1545       N  0.05956365  0.71683882  0.53927622    -0.07790
N1546       N  0.04888356  0.71849619  0.56321560    -0.60540
N1547       N  0.07676479  0.69769041  0.97653704    -0.05530
N1548       N  0.07990070  0.68561647  0.95310475    -0.61620
Mn1549     Mn  0.10739672  0.69882477  0.50703512     1.18440
C1550       C  0.06194914  0.69741492  0.93694320     0.96680
C1551       C  0.06324556  0.70112895  0.57859018     0.97340
N1552       N  0.15283050  0.78660249  0.97183014    -0.07810
N1553       N  0.17051349  0.80122862  0.95833084    -0.64120
N1554       N  0.13660400  0.80230480  0.53337866    -0.06620
N1555       N  0.14235444  0.82640081  0.54412188    -0.64800
N1556       N  0.15771473  0.78670878  0.53112391    -0.07320
N1557       N  0.17836536  0.80101034  0.53962510    -0.64390
N1558       N  0.13124738  0.80136848  0.97327619    -0.06220
N1559       N  0.13330617  0.82460746  0.96016520    -0.65080
Mn1560     Mn  0.15758056  0.75164843  0.00165655     1.10660
C1561       C  0.15751955  0.82489439  0.95085646     0.97900
C1562       C  0.16823682  0.82571678  0.54769090     0.97980
N1563       N  0.05893712  0.77941208  0.54037163    -0.07330
N1564       N  0.05129225  0.77720362  0.56571485    -0.62700
N1565       N  0.07321752  0.79864807  0.97554817    -0.06650
N1566       N  0.07491252  0.81022512  0.95170099    -0.59430
N1567       N  0.05535295  0.77922291  0.97555999    -0.07960
N1568       N  0.04442618  0.77717208  0.95146888    -0.62270
N1569       N  0.07697415  0.79860283  0.53870661    -0.06940
N1570       N  0.08164489  0.80982191  0.56233979    -0.59450
Mn1571     Mn  0.05634724  0.74790997  0.50750616     1.20190
Mn1572     Mn  0.10394863  0.80029939  0.00549903     1.10090
Cl1573     Cl  0.10694308  0.74959209  0.50548255    -0.87420
C1574       C  0.06561682  0.79652798  0.57924539     0.94910
C1575       C  0.05695466  0.79668010  0.93693756     0.94710
N1576       N  0.44049901  0.71938055  0.53646571    -0.07580
N1577       N  0.44891941  0.72105544  0.56171773    -0.59700
N1578       N  0.42276329  0.70173502  0.97125100    -0.07260
N1579       N  0.41988425  0.69118152  0.94699413    -0.61830
N1580       N  0.44167455  0.72001842  0.97173681    -0.06860
N1581       N  0.45193707  0.72222772  0.94754405    -0.59670
N1582       N  0.42197919  0.70067113  0.53464683    -0.06530
N1583       N  0.41770053  0.68931135  0.55820989    -0.62180
C1584       C  0.43466958  0.70179272  0.57505559     0.94600
C1585       C  0.43826889  0.70398082  0.93226915     0.94380
N1586       N  0.34218116  0.71733509  0.97296598    -0.07760
N1587       N  0.32148118  0.70345846  0.96387196    -0.60280
N1588       N  0.36274373  0.69938334  0.53176954    -0.05880
N1589       N  0.35800092  0.67645874  0.54490523    -0.61530
N1590       N  0.34244872  0.71625713  0.53215643    -0.07790
N1591       N  0.32295654  0.70404520  0.54509843    -0.60540
N1592       N  0.36293113  0.70103649  0.97164760    -0.05530
N1593       N  0.35695577  0.67713597  0.96068450    -0.61620
Mn1594     Mn  0.39325174  0.70052396  0.50219302     1.18440
C1595       C  0.33124905  0.67847952  0.95605971     0.96680
C1596       C  0.33348178  0.67949294  0.55332678     0.97340
N1597       N  0.44211172  0.78299587  0.97237384    -0.07810
N1598       N  0.45157458  0.78096364  0.94774317    -0.64120
N1599       N  0.42330854  0.80041312  0.53701143    -0.06620
N1600       N  0.42074419  0.81089549  0.56136261    -0.64800
N1601       N  0.44233390  0.78222058  0.53647802    -0.07320
N1602       N  0.45335099  0.78021665  0.56045697    -0.64390
N1603       N  0.42348707  0.80171007  0.97293238    -0.06220
N1604       N  0.41995242  0.81259627  0.94886918    -0.65080
Mn1605     Mn  0.44320870  0.75109486  0.50428985     1.10660
C1606       C  0.43749883  0.79952970  0.93321364     0.97900
C1607       C  0.43981234  0.79836558  0.57571043     0.97980
N1608       N  0.34319949  0.78582667  0.53373184    -0.07330
N1609       N  0.32328673  0.79801834  0.54594783    -0.62700
N1610       N  0.36407549  0.80382143  0.97470774    -0.06650
N1611       N  0.35988196  0.82719145  0.96214491    -0.59430
N1612       N  0.34314066  0.78785135  0.97427378    -0.07960
N1613       N  0.32380100  0.80136607  0.96189035    -0.62270
N1614       N  0.36365227  0.80250379  0.53447718    -0.06940
N1615       N  0.35836760  0.82539738  0.54755876    -0.59450
Mn1616     Mn  0.34170507  0.75187461  0.50320457     1.20190
Mn1617     Mn  0.39424170  0.80238575  0.50486747     1.10090
Cl1618     Cl  0.39246825  0.75149124  0.50353689    -0.87420
C1619       C  0.33348025  0.82240578  0.55481527     0.94910
C1620       C  0.33505074  0.82568593  0.95405050     0.94710
N1621       N  0.22507547  0.53632107  0.59719371    -0.07580
N1622       N  0.21787523  0.54995245  0.57516399    -0.59700
N1623       N  0.28133538  0.55282349  0.62291061    -0.07260
N1624       N  0.29401341  0.57590653  0.61871976    -0.61830
N1625       N  0.28238659  0.53628995  0.60183428    -0.06860
N1626       N  0.29494145  0.54932627  0.58220846    -0.59670
N1627       N  0.22261226  0.55292766  0.61814262    -0.06530
N1628       N  0.21273768  0.57691085  0.61098274    -0.62180
C1629       C  0.21018618  0.57523283  0.58435275     0.94600
C1630       C  0.30246388  0.57390534  0.59351823     0.94380
N1631       N  0.27932465  0.53578539  0.70295428    -0.07760
N1632       N  0.30246933  0.53616068  0.71514271    -0.60280
N1633       N  0.21752779  0.55275931  0.67934728    -0.05880
N1634       N  0.19415084  0.56317143  0.67428659    -0.61530
N1635       N  0.21658583  0.53479774  0.69907553    -0.07790
N1636       N  0.19227312  0.53266314  0.70762638    -0.60540
N1637       N  0.27902342  0.55402859  0.68346442    -0.05530
N1638       N  0.30161470  0.56702023  0.68191104    -0.61620
Mn1639     Mn  0.24995917  0.55319769  0.65149606     1.18440
C1640       C  0.31600526  0.55619217  0.70200537     0.96680
C1641       C  0.17845800  0.55067489  0.69214310     0.97340
N1642       N  0.28188051  0.96584056  0.60357377    -0.07810
N1643       N  0.29412731  0.95163143  0.58447552    -0.64120
N1644       N  0.22195963  0.95065156  0.62055586    -0.06620
N1645       N  0.21118451  0.92681155  0.61432386    -0.64800
N1646       N  0.22437892  0.96647758  0.59907323    -0.07320
N1647       N  0.21595875  0.95253023  0.57766793    -0.64390
N1648       N  0.28062902  0.95033477  0.62528867    -0.06220
N1649       N  0.29289965  0.92685170  0.62193042    -0.65080
Mn1650     Mn  0.25353979  0.50115190  0.59951823     1.10660
C1651       C  0.30118258  0.92734480  0.59659568     0.97900
C1652       C  0.20776315  0.92785445  0.58774661     0.97980
N1653       N  0.21674432  0.97161024  0.70161070    -0.07330
N1654       N  0.19328606  0.97224120  0.71266146    -0.62700
N1655       N  0.27851495  0.95169161  0.68585285    -0.06650
N1656       N  0.30110707  0.93864211  0.68442597    -0.59430
N1657       N  0.27936110  0.97138688  0.70403345    -0.07960
N1658       N  0.30298563  0.97221869  0.71508181    -0.62270
N1659       N  0.21719289  0.95292727  0.68244547    -0.06940
N1660       N  0.19431327  0.94047751  0.68008832    -0.59450
Mn1661     Mn  0.24813780  0.00352319  0.70361377     1.20190
Mn1662     Mn  0.24931180  0.95136189  0.65394561     1.10090
Cl1663     Cl  0.25023401  0.00228728  0.65189447    -0.87420
C1664       C  0.17966189  0.95231648  0.69937298     0.94910
C1665       C  0.31626007  0.95123364  0.70292904     0.94710
N1666       N  0.21904430  0.53424963  0.80563885    -0.07580
N1667       N  0.19546219  0.53406065  0.79450412    -0.59700
N1668       N  0.28189746  0.55082254  0.82619209    -0.07260
N1669       N  0.30578675  0.56051787  0.82991788    -0.61830
N1670       N  0.28146536  0.53271923  0.80653248    -0.06860
N1671       N  0.30515030  0.52987868  0.79660207    -0.59670
N1672       N  0.21980056  0.55258894  0.82509142    -0.06530
N1673       N  0.19688670  0.56489266  0.82780152    -0.62180
C1674       C  0.18191521  0.55356590  0.80834833     0.94600
C1675       C  0.32023236  0.54736944  0.81121108     0.94380
N1676       N  0.27752815  0.53575441  0.90884030    -0.07760
N1677       N  0.28663662  0.54904920  0.93033899    -0.60280
N1678       N  0.22057982  0.55295605  0.88553320    -0.05880
N1679       N  0.20783102  0.57603313  0.88968497    -0.61530
N1680       N  0.21981775  0.53658007  0.90668857    -0.07790
N1681       N  0.20722659  0.54963845  0.92633814    -0.60540
N1682       N  0.27915021  0.55221494  0.88775851    -0.05530
N1683       N  0.29002470  0.57590011  0.89429012    -0.61620
Mn1684     Mn  0.25055807  0.55228215  0.85554481     1.18440
C1685       C  0.29463148  0.57397132  0.92066336     0.96680
C1686       C  0.19946234  0.57404492  0.91487709     0.97340
N1687       N  0.28068507  0.96955693  0.80508643    -0.07810
N1688       N  0.30385536  0.97026966  0.79355718    -0.64120
N1689       N  0.21904265  0.95109967  0.82345164    -0.06620
N1690       N  0.19580620  0.93934618  0.82521004    -0.64800
N1691       N  0.21895001  0.97015264  0.80469841    -0.07320
N1692       N  0.19560964  0.97161104  0.79341293    -0.64390
N1693       N  0.28073705  0.95105370  0.82436374    -0.06220
N1694       N  0.30383616  0.93894540  0.82637436    -0.65080
Mn1695     Mn  0.24988524  0.50179328  0.80404837     1.10660
C1696       C  0.31797686  0.95075043  0.80671288     0.97900
C1697       C  0.18125177  0.95218276  0.80619541     0.97980
N1698       N  0.21971006  0.96607772  0.90578467    -0.07330
N1699       N  0.20778947  0.95314242  0.92579620    -0.62700
N1700       N  0.27857146  0.95005017  0.88623768    -0.06650
N1701       N  0.29253711  0.92787625  0.89124215    -0.59430
N1702       N  0.27776087  0.96654730  0.90738921    -0.07960
N1703       N  0.29069396  0.95483002  0.92762864    -0.62270
N1704       N  0.22012465  0.94948692  0.88466792    -0.06940
N1705       N  0.20806670  0.92609306  0.88946278    -0.59450
Mn1706     Mn  0.24848878  0.50112698  0.90826657     1.20190
Mn1707     Mn  0.24970217  0.95012553  0.85425522     1.10090
Cl1708     Cl  0.24960041  0.50123631  0.85608970    -0.87420
C1709       C  0.20048783  0.92838740  0.91489887     0.94910
C1710       C  0.30027171  0.93103060  0.91676284     0.94710
N1711       N  0.02912687  0.66551676  0.72240377    -0.07580
N1712       N  0.04225571  0.68639800  0.71159099    -0.59700
N1713       N  0.47012474  0.64468358  0.70516731    -0.07260
N1714       N  0.45587243  0.64885446  0.68374890    -0.61830
N1715       N  0.47041373  0.66668340  0.72087138    -0.06860
N1716       N  0.45683097  0.68697968  0.70894792    -0.59670
N1717       N  0.02939557  0.64412677  0.70583561    -0.06530
N1718       N  0.04354036  0.64953089  0.68467470    -0.62180
C1719       C  0.05180002  0.67567153  0.68838200     0.94600
C1720       C  0.44739988  0.67499927  0.68588683     0.94380
N1721       N  0.46683008  0.56245450  0.72382775    -0.07760
N1722       N  0.44271822  0.55313314  0.72655710    -0.60280
N1723       N  0.02902705  0.58058173  0.70422417    -0.05880
N1724       N  0.05157738  0.58169035  0.69156333    -0.61530
N1725       N  0.02905736  0.56051231  0.72187346    -0.07790
N1726       N  0.05177795  0.54760701  0.72156686    -0.60540
N1727       N  0.46736154  0.58184734  0.70533940    -0.05530
N1728       N  0.44381096  0.58558286  0.69483385    -0.61620
Mn1729     Mn  0.99908847  0.61242081  0.70479174     1.18440
C1730       C  0.42865360  0.56729343  0.70800542     0.96680
C1731       C  0.06567188  0.56074673  0.70238078     0.97340
N1732       N  0.47041697  0.66486617  0.78820103    -0.07810
N1733       N  0.45783206  0.68588302  0.79953419    -0.64120
N1734       N  0.02913695  0.64172835  0.80434333    -0.06620
N1735       N  0.04322666  0.64493936  0.82601882    -0.64800
N1736       N  0.02889776  0.66444359  0.78966486    -0.07320
N1737       N  0.04221887  0.68418938  0.80267067    -0.64390
N1738       N  0.46992559  0.64312166  0.80432764    -0.06220
N1739       N  0.45624668  0.64864637  0.82587296    -0.65080
Mn1740     Mn  0.49970817  0.66666188  0.75531829     1.10660
C1741       C  0.44845661  0.67508619  0.82269231     0.97900
C1742       C  0.05149415  0.67121126  0.82522674     0.97980
N1743       N  0.03112136  0.55963738  0.78331872    -0.07330
N1744       N  0.05469512  0.54848516  0.78146569    -0.62700
N1745       N  0.46918594  0.57844329  0.80314283    -0.06650
N1746       N  0.44695367  0.57845150  0.81637608    -0.59430
N1747       N  0.46926092  0.55880873  0.78496044    -0.07960
N1748       N  0.44699258  0.54500182  0.78549516    -0.62270
N1749       N  0.03087430  0.57851173  0.80236202    -0.06940
N1750       N  0.05412093  0.58023991  0.81401736    -0.59450
Mn1751     Mn  0.99908123  0.55886565  0.75333919     1.20190
Mn1752     Mn  0.99959139  0.61014341  0.80386562     1.10090
Cl1753     Cl  0.99933512  0.61228349  0.75438248    -0.87420
C1754       C  0.06876031  0.56111065  0.80110840     0.94910
C1755       C  0.43324751  0.55724859  0.80543508     0.94710
N1756       N  0.02988356  0.94346777  0.72184172    -0.07580
N1757       N  0.05319300  0.95523152  0.72260549    -0.59700
N1758       N  0.46733088  0.92296373  0.70456860    -0.07260
N1759       N  0.44369847  0.92041681  0.69386988    -0.61830
N1760       N  0.46786716  0.94352529  0.72183297    -0.06860
N1761       N  0.44465420  0.95534244  0.72306687    -0.59670
N1762       N  0.02962956  0.92321976  0.70419356    -0.06530
N1763       N  0.05272014  0.92089749  0.69262729    -0.62180
C1764       C  0.06710995  0.94138366  0.70389244     0.94600
C1765       C  0.42972359  0.94109956  0.70529762     0.94380
N1766       N  0.47058905  0.83773116  0.72165273    -0.07760
N1767       N  0.45976491  0.81589438  0.70959726    -0.60280
N1768       N  0.02838919  0.85942668  0.70513938    -0.05880
N1769       N  0.04219825  0.85369745  0.68379685    -0.61530
N1770       N  0.02890352  0.83856499  0.72227843    -0.07790
N1771       N  0.04248998  0.81767387  0.71177197    -0.60540
N1772       N  0.46909503  0.85930455  0.70542917    -0.05530
N1773       N  0.45622486  0.85298746  0.68344142    -0.61620
Mn1774     Mn  0.49854541  0.89172198  0.70441430     1.18440
C1775       C  0.45023758  0.82606122  0.68599228     0.96680
C1776       C  0.05112407  0.82787395  0.68793743     0.97340
N1777       N  0.46785655  0.94584078  0.78299319    -0.07810
N1778       N  0.44463242  0.95785195  0.78158701    -0.64120
N1779       N  0.02954132  0.92713453  0.80223445    -0.06620
N1780       N  0.05253024  0.92524136  0.81426406    -0.64800
N1781       N  0.03006607  0.94599560  0.78335745    -0.07320
N1782       N  0.05359269  0.95727433  0.78226468    -0.64390
N1783       N  0.46783532  0.92654005  0.80154658    -0.06220
N1784       N  0.44475982  0.92512195  0.81315715    -0.65080
Mn1785     Mn  0.49900383  0.94611404  0.75241007     1.10660
C1786       C  0.43058324  0.94513750  0.80089721     0.97900
C1787       C  0.06748819  0.94425301  0.80186068     0.97980
N1788       N  0.02854224  0.84117404  0.79016159    -0.07330
N1789       N  0.03864025  0.82097444  0.80525161    -0.62700
N1790       N  0.46981259  0.86202102  0.80468981    -0.06650
N1791       N  0.45635299  0.85653834  0.82643203    -0.59430
N1792       N  0.47021897  0.84023114  0.78860526    -0.07960
N1793       N  0.45767230  0.81930323  0.80006952    -0.62270
N1794       N  0.02999625  0.86463882  0.80373209    -0.06940
N1795       N  0.04289022  0.86132039  0.82623251    -0.59450
Mn1796     Mn  0.49965629  0.83830835  0.75573995     1.20190
Mn1797     Mn  0.49908042  0.89545968  0.80334894     1.10090
Cl1798     Cl  0.49900330  0.89234379  0.75395430    -0.87420
C1799       C  0.04761018  0.83413163  0.82780266     0.94910
C1800       C  0.44855325  0.83004960  0.82345418     0.94710
C1801       C  0.35876802  0.93173354  0.78673954    -0.10620
C1802       C  0.34676915  0.94904261  0.80560658     0.05580
C1803       C  0.36251687  0.96462157  0.82344504    -0.04380
C1804       C  0.38981766  0.96365998  0.82141703    -0.08830
C1805       C  0.40179951  0.94653245  0.80238493     0.04700
C1806       C  0.38607036  0.92990836  0.78549021    -0.03860
Br1807     Br  0.40115324  0.90311516  0.76170379    -0.03550
H1808       H  0.34690345  0.91920561  0.77333562     0.08610
H1809       H  0.40169916  0.97604157  0.83492889     0.06630
Br1810     Br  0.34753357  0.98725170  0.85106701    -0.03980
C1811       C  0.13934628  0.92975747  0.82004477    -0.10620
C1812       C  0.15218455  0.94975345  0.80440062     0.05580
C1813       C  0.13668387  0.96810655  0.78902352    -0.04380
C1814       C  0.10944921  0.96660637  0.78995202    -0.08830
C1815       C  0.09653118  0.94629108  0.80484803     0.04700
C1816       C  0.11197044  0.92771155  0.82033006    -0.03860
Br1817     Br  0.09773960  0.89902443  0.84255157    -0.03550
H1818       H  0.15065402  0.91551550  0.83224200     0.08610
H1819       H  0.09816842  0.98145572  0.77880239     0.06630
Br1820     Br  0.15090862  0.99557810  0.76582421    -0.03980
C1821       C  0.36287753  0.56442718  0.82962684    -0.10620
C1822       C  0.34939978  0.54824111  0.81053612     0.05580
C1823       C  0.36428941  0.53277807  0.79197749    -0.04380
C1824       C  0.39147657  0.53507821  0.79173232    -0.08830
C1825       C  0.40483503  0.55245613  0.80975601     0.04700
C1826       C  0.39020850  0.56638296  0.82965302    -0.03860
Br1827     Br  0.40591672  0.58761025  0.85811587    -0.03550
H1828       H  0.35213375  0.57568797  0.84478831     0.08610
H1829       H  0.40218631  0.52364444  0.77670330     0.06630
Br1830     Br  0.34932634  0.50871701  0.76559632    -0.03980
C1831       C  0.13778632  0.55355420  0.82982049    -0.10620
C1832       C  0.15307965  0.55720380  0.80678585     0.05580
C1833       C  0.14051263  0.56407598  0.78259378    -0.04380
C1834       C  0.11312078  0.56418487  0.78081192    -0.08830
C1835       C  0.09771113  0.55945404  0.80358693     0.04700
C1836       C  0.11037877  0.55526033  0.82848434    -0.03860
Br1837     Br  0.09111406  0.55136393  0.86109335    -0.03550
H1838       H  0.14716969  0.54919487  0.84889474     0.08610
H1839       H  0.10384001  0.56922978  0.76184472     0.06630
Br1840     Br  0.16037501  0.57704339  0.75291596    -0.03980
C1841       C  0.36071744  0.97076822  0.70944164    -0.10620
C1842       C  0.34516673  0.94761597  0.70384329     0.05580
C1843       C  0.35775687  0.92241838  0.69695663    -0.04380
C1844       C  0.38520024  0.92099101  0.69620310    -0.08830
C1845       C  0.40071348  0.94400362  0.70324198     0.04700
C1846       C  0.38794628  0.96890657  0.71011833    -0.03860
Br1847     Br  0.40647221  0.00130927  0.72055069    -0.03550
H1848       H  0.35162151  0.99071296  0.71282110     0.08610
H1849       H  0.39440878  0.90141073  0.69123931     0.06630
Br1850     Br  0.33879876  0.88889891  0.68951808    -0.03980
C1851       C  0.13508960  0.96342875  0.68220940    -0.10620
C1852       C  0.15093523  0.94902058  0.70063638     0.05580
C1853       C  0.13910191  0.93103727  0.71911908    -0.04380
C1854       C  0.11178323  0.92855072  0.71970840    -0.08830
C1855       C  0.09589821  0.94334990  0.70159624     0.04700
C1856       C  0.10779894  0.96062231  0.68250265    -0.03860
Br1857     Br  0.08739684  0.98169479  0.65736668    -0.03550
H1858       H  0.14397786  0.97711283  0.66767536     0.08610
H1859       H  0.10289280  0.91504566  0.73439592     0.06630
Br1860     Br  0.15963116  0.90891957  0.74324064    -0.03980
C1861       C  0.38430808  0.57302884  0.72814617    -0.10620
C1862       C  0.39972274  0.56638221  0.70576910     0.05580
C1863       C  0.38720106  0.55820660  0.68179844    -0.04380
C1864       C  0.36000733  0.55469489  0.68111425    -0.08830
C1865       C  0.34469280  0.56026738  0.70378660     0.04700
C1866       C  0.35692806  0.57099339  0.72687988    -0.03860
Br1867     Br  0.33661735  0.58634481  0.75536392    -0.03550
H1868       H  0.39354177  0.58053243  0.74637535     0.08610
H1869       H  0.35076996  0.54745362  0.66278395     0.06630
Br1870     Br  0.40658350  0.55035943  0.64991414    -0.03980
C1871       C  0.10802355  0.57626309  0.68243156    -0.10620
C1872       C  0.09415586  0.55661232  0.69757875     0.05580
C1873       C  0.10823560  0.53439030  0.70900460    -0.04380
C1874       C  0.13520073  0.53231157  0.70551238    -0.08830
C1875       C  0.14935771  0.55279603  0.69204733     0.04700
C1876       C  0.13528646  0.57471346  0.67972952    -0.03860
Br1877     Br  0.15170617  0.60385184  0.65979082    -0.03550
H1878       H  0.09777149  0.59355835  0.67332118     0.08610
H1879       H  0.14533897  0.51467297  0.71387327     0.06630
Br1880     Br  0.09228095  0.50663778  0.73055041    -0.03980
C1881       C  0.31193038  0.87762602  0.60125636    -0.10620
C1882       C  0.30882712  0.90062161  0.58385525     0.05580
C1883       C  0.31039649  0.89599347  0.55597215    -0.04380
C1884       C  0.31590953  0.86918042  0.54647391    -0.08830
C1885       C  0.31897976  0.84662526  0.56416136     0.04700
C1886       C  0.31643836  0.85096663  0.59164202    -0.03860
Br1887     Br  0.32104334  0.82134840  0.61693409    -0.03550
H1888       H  0.31080281  0.88013073  0.62279797     0.08610
H1889       H  0.31920273  0.86616569  0.52524021     0.06630
Br1890     Br  0.30626375  0.92494137  0.52991218    -0.03980
C1891       C  0.30671069  0.63701498  0.54772176    -0.10620
C1892       C  0.32012942  0.65546306  0.56486517     0.05580
C1893       C  0.32904036  0.64584917  0.58979276    -0.04380
C1894       C  0.32525719  0.61827505  0.59704698    -0.08830
C1895       C  0.31162999  0.59961125  0.58032018     0.04700
C1896       C  0.30193405  0.60936358  0.55545468    -0.03860
Br1897     Br  0.28129375  0.58661312  0.53192430    -0.03550
H1898       H  0.30076986  0.64384462  0.52790076     0.08610
H1899       H  0.33224817  0.61160209  0.61657341     0.06630
Br1900     Br  0.34706457  0.66985423  0.61448839    -0.03980
C1901       C  0.29693831  0.89302937  0.95035218    -0.10620
C1902       C  0.31156865  0.90712287  0.93086221     0.05580
C1903       C  0.33235072  0.89330580  0.91845345    -0.04380
C1904       C  0.33766465  0.86581488  0.92469098    -0.08830
C1905       C  0.32273754  0.85107212  0.94336080     0.04700
C1906       C  0.30223352  0.86501205  0.95650324    -0.03860
Br1907     Br  0.28115163  0.84688850  0.98280606    -0.03550
H1908       H  0.28036200  0.90320093  0.95950060     0.08610
H1909       H  0.35437624  0.85623852  0.91544993     0.06630
Br1910     Br  0.35399484  0.91114528  0.89226766    -0.03980
C1911       C  0.32697960  0.62797924  0.96395156    -0.10800
C1912       C  0.31639125  0.65240746  0.95250381     0.05580
C1913       C  0.29457800  0.65022559  0.93554321    -0.04380
C1914       C  0.28597438  0.62387926  0.92764574    -0.08830
C1915       C  0.29887056  0.59954706  0.93637590     0.04700
C1916       C  0.31844099  0.60166338  0.95596965    -0.03860
Br1917     Br  0.33627680  0.56965163  0.96972926    -0.03550
H1918       H  0.34321082  0.62926759  0.97794697     0.08610
H1919       H  0.27024696  0.62246940  0.91305604     0.06630
Br1920     Br  0.27797255  0.68216285  0.92014035    -0.03980
C1921       C  0.46133597  0.79622609  0.88956434    -0.10620
C1922       C  0.43825248  0.80218323  0.90336132     0.05580
C1923       C  0.41616812  0.81041168  0.88803205    -0.04380
C1924       C  0.41888059  0.81779667  0.86096093    -0.08830
C1925       C  0.44255635  0.81366831  0.84775301     0.04700
C1926       C  0.46295868  0.80048942  0.86179617    -0.03860
Br1927     Br  0.49331044  0.78839462  0.84349862    -0.03550
H1928       H  0.47829385  0.78875542  0.90039847     0.08610
H1929       H  0.40250865  0.82686371  0.85024146     0.06630
Br1930     Br  0.38147108  0.80858818  0.90166022    -0.03980
C1931       C  0.42064018  0.80011204  0.62168095    -0.10620
C1932       C  0.44277019  0.80086271  0.60512828     0.05580
C1933       C  0.46744099  0.80493480  0.61686492    -0.04380
C1934       C  0.46970246  0.80907179  0.64452548    -0.08830
C1935       C  0.44752558  0.80997721  0.66097674     0.04700
C1936       C  0.42288458  0.80481651  0.64942755    -0.03860
Br1937     Br  0.39182202  0.80625916  0.67054808    -0.03550
H1938       H  0.40149008  0.79680896  0.61289455     0.08610
H1939       H  0.48862355  0.81455559  0.65282175     0.06630
Br1940     Br  0.49780382  0.81023257  0.59531383    -0.03980
C1941       C  0.46099406  0.70675494  0.85935888    -0.10620
C1942       C  0.44131807  0.69120187  0.84663800     0.05580
C1943       C  0.41937044  0.68327336  0.86146116    -0.04380
C1944       C  0.41839538  0.68865322  0.88899565    -0.08830
C1945       C  0.43924362  0.70184523  0.90245926     0.04700
C1946       C  0.46020246  0.71202179  0.88703632    -0.03860
Br1947     Br  0.48979185  0.73021658  0.90269393    -0.03550
H1948       H  0.47834081  0.71237837  0.84831277     0.08610
H1949       H  0.40159958  0.68142784  0.90004008     0.06630
Br1950     Br  0.39118039  0.66309536  0.84509418    -0.03980
C1951       C  0.42338127  0.66947905  0.64372708    -0.10620
C1952       C  0.43618207  0.68801787  0.66120968     0.05580
C1953       C  0.44496645  0.71338646  0.65058769    -0.04380
C1954       C  0.44346099  0.71826539  0.62264622    -0.08830
C1955       C  0.43407687  0.69766062  0.60482201     0.04700
C1956       C  0.42329981  0.67328993  0.61600572    -0.03860
Br1957     Br  0.41153163  0.64199176  0.59510873    -0.03550
H1958       H  0.41620540  0.64988550  0.65140614     0.08610
H1959       H  0.45066651  0.73772696  0.61478327     0.06630
Br1960     Br  0.46041233  0.74093082  0.67316972    -0.03980
C1961       C  0.19567370  0.85368850  0.93676319    -0.10620
C1962       C  0.16895867  0.85172725  0.94202198     0.05580
C1963       C  0.15350198  0.87648830  0.94056068    -0.04380
C1964       C  0.16514463  0.90201939  0.93523695    -0.08830
C1965       C  0.19148858  0.90366499  0.92922689     0.04700
C1966       C  0.20672853  0.87913574  0.92945077    -0.03860
Br1967     Br  0.24214508  0.87872433  0.91746235    -0.03550
H1968       H  0.20781471  0.83527314  0.93737998     0.08610
H1969       H  0.15304172  0.92041266  0.93343822     0.06630
Br1970     Br  0.11597873  0.87826074  0.94317742    -0.03980
C1971       C  0.17192580  0.61506700  0.91156788    -0.10620
C1972       C  0.18904574  0.59935032  0.92764232     0.05580
C1973       C  0.20112426  0.61229993  0.94992351    -0.04380
C1974       C  0.19509949  0.64011736  0.95611028    -0.08830
C1975       C  0.17787153  0.65553472  0.93981626     0.04700
C1976       C  0.16676654  0.64283742  0.91715799    -0.03860
Br1977     Br  0.14449539  0.66306684  0.89302045    -0.03550
H1978       H  0.16342076  0.60599179  0.89361150     0.08610
H1979       H  0.20307189  0.64936912  0.97421523     0.06630
Br1980     Br  0.22668811  0.59361046  0.97161615    -0.03980
C1981       C  0.18413159  0.90227637  0.55185256    -0.10620
C1982       C  0.20277966  0.90220791  0.57233318     0.05580
C1983       C  0.21389157  0.87654971  0.58056243    -0.04380
C1984       C  0.20383819  0.85150124  0.57076983    -0.08830
C1985       C  0.18297956  0.85155399  0.55266292     0.04700
C1986       C  0.17427779  0.87723516  0.54183913    -0.03860
Br1987     Br  0.14872504  0.87978718  0.51357330    -0.03550
H1988       H  0.17606295  0.92175451  0.54477004     0.08610
H1989       H  0.21129417  0.83202401  0.57852689     0.06630
Br1990     Br  0.24250546  0.87410797  0.60555478    -0.03980
C1991       C  0.18845517  0.60153131  0.54776869    -0.10620
C1992       C  0.20697229  0.60076175  0.56835015     0.05580
C1993       C  0.21886776  0.62594691  0.57684812    -0.04380
C1994       C  0.20930456  0.65144376  0.56768116    -0.08830
C1995       C  0.18820833  0.65225357  0.54991300     0.04700
C1996       C  0.17909006  0.62702291  0.53836634    -0.03860
Br1997     Br  0.15283034  0.62569700  0.51067569    -0.03550
H1998       H  0.17977616  0.58242358  0.54048284     0.08610
H1999       H  0.21703089  0.67055415  0.57602310     0.06630
Br2000     Br  0.24738338  0.62714888  0.60205163    -0.03980
C2001       C  0.03425265  0.82196933  0.90161583    -0.10620
C2002       C  0.05286126  0.80217087  0.90829043     0.05580
C2003       C  0.06966655  0.79180597  0.88827438    -0.04380
C2004       C  0.06706774  0.80107734  0.86160650    -0.08830
C2005       C  0.04873798  0.82167134  0.85501331     0.04700
C2006       C  0.03236863  0.83227589  0.87567798    -0.03860
Br2007     Br  0.00650781  0.86096283  0.87092998    -0.03550
H2008       H  0.02181306  0.83049627  0.91709265     0.08610
H2009       H  0.08014198  0.79323013  0.84639524     0.06630
Br2010     Br  0.09743243  0.76654401  0.89691054    -0.03980
C2011       C  0.05100025  0.78368745  0.62584853    -0.10620
C2012       C  0.06646741  0.80044949  0.60911870     0.05580
C2013       C  0.08220041  0.82115774  0.62155340    -0.04380
C2014       C  0.07971799  0.82662338  0.64895647    -0.08830
C2015       C  0.06181941  0.81226613  0.66483577     0.04700
C2016       C  0.04852477  0.78951949  0.65341952    -0.03860
Br2017     Br  0.02473012  0.76790607  0.67402237    -0.03550
H2018       H  0.03957714  0.76701011  0.61722284     0.08610
H2019       H  0.09017916  0.84414203  0.65747394     0.06630
Br2020     Br  0.10633147  0.84480778  0.60301366    -0.03980
C2021       C  0.05288980  0.71338448  0.88943307    -0.10620
C2022       C  0.06167522  0.69268473  0.90733153     0.05580
C2023       C  0.07202442  0.66797455  0.89637733    -0.04380
C2024       C  0.07285288  0.66429561  0.86867548    -0.08830
C2025       C  0.06128087  0.68338518  0.85089083     0.04700
C2026       C  0.05232724  0.70874244  0.86144814    -0.03860
Br2027     Br  0.03839252  0.73682758  0.83858925    -0.03550
H2028       H  0.04610337  0.73306545  0.89721807     0.08610
H2029       H  0.07997320  0.64459170  0.86111355     0.06630
Br2030     Br  0.08215821  0.63631543  0.91758278    -0.03980
C2031       C  0.08324444  0.69103423  0.62327823    -0.10620
C2032       C  0.06127098  0.69939958  0.60822919     0.05580
C2033       C  0.03799594  0.70583362  0.62193772    -0.04380
C2034       C  0.03663740  0.70211249  0.64970012    -0.08830
C2035       C  0.05800074  0.69180045  0.66434044     0.04700
C2036       C  0.08166605  0.68709629  0.65104197    -0.03860
Br2037     Br  0.11151148  0.67277706  0.66984543    -0.03550
H2038       H  0.10150616  0.68656224  0.61334428     0.08610
H2039       H  0.01792553  0.70452858  0.65946203     0.06630
Br2040     Br  0.00634195  0.71631425  0.60387273    -0.03980
N2041       N  0.66012009  0.21679072  0.03159926    -0.07580
N2042       N  0.68166525  0.20298506  0.03843277    -0.59700
N2043       N  0.63588666  0.19850279  0.47501329    -0.07260
N2044       N  0.64044060  0.17566674  0.46155881    -0.61830
N2045       N  0.65543688  0.21616305  0.47277846    -0.06860
N2046       N  0.67436492  0.20447253  0.45853086    -0.59670
N2047       N  0.63966928  0.20048296  0.03526519    -0.06530
N2048       N  0.64680102  0.17670186  0.04570884    -0.62180
C2049       C  0.67280183  0.17802600  0.04719748     0.94600
C2050       C  0.66415397  0.17948990  0.45120933     0.94380
N2051       N  0.55798074  0.21617631  0.47527841    -0.07760
N2052       N  0.54823612  0.21706163  0.45049202    -0.60280
N2053       N  0.57940770  0.19968116  0.03985033    -0.05880
N2054       N  0.58263584  0.18937628  0.06419742    -0.61530
N2055       N  0.55956357  0.21683998  0.03927727    -0.07790
N2056       N  0.54888360  0.21849749  0.06321671    -0.60540
N2057       N  0.57675052  0.19767775  0.47654431    -0.05530
N2058       N  0.57988832  0.18560519  0.45311162    -0.61620
Mn2059     Mn  0.60739645  0.19882545  0.00703601     1.18440
C2060       C  0.56193968  0.19740610  0.43694843     0.96680
C2061       C  0.56324557  0.20113015  0.07859124     0.97340
N2062       N  0.65280899  0.28657472  0.47182430    -0.07810
N2063       N  0.67048493  0.30118431  0.45830002    -0.64120
N2064       N  0.63660405  0.30230555  0.03337903    -0.06620
N2065       N  0.64235463  0.32640165  0.04412202    -0.64800
N2066       N  0.65771472  0.28670942  0.03112431    -0.07320
N2067       N  0.67836543  0.30101098  0.03962529    -0.64390
N2068       N  0.63123019  0.30134661  0.47327618    -0.06220
N2069       N  0.63328399  0.32457490  0.46014778    -0.65080
Mn2070     Mn  0.65756541  0.25163274  0.50165810     1.10660
C2071       C  0.65748987  0.32484665  0.45081876     0.97900
C2072       C  0.66823702  0.32571753  0.04769093     0.97980
N2073       N  0.55893690  0.27941329  0.04037196    -0.07330
N2074       N  0.55129163  0.27720521  0.06571505    -0.62700
N2075       N  0.57320262  0.29863683  0.47555254    -0.06650
N2076       N  0.57489632  0.31021394  0.45170530    -0.59430
N2077       N  0.55533804  0.27921188  0.47556532    -0.07960
N2078       N  0.54440980  0.27716128  0.45147483    -0.62270
N2079       N  0.57697405  0.29860391  0.03870696    -0.06940
N2080       N  0.58164449  0.30982330  0.06234007    -0.59450
Mn2081     Mn  0.55634709  0.24791088  0.00750694     1.20190
Mn2082     Mn  0.60393602  0.30028800  0.50550085     1.10090
Cl2083     Cl  0.60694294  0.24959279  0.00548323    -0.87420
C2084       C  0.56561605  0.29652968  0.07924555     0.94910
C2085       C  0.55693741  0.29666949  0.43694288     0.94710
N2086       N  0.94049898  0.21938076  0.03646631    -0.07580
N2087       N  0.94891908  0.22105593  0.06171842    -0.59700
N2088       N  0.92276829  0.20173465  0.47125291    -0.07260
N2089       N  0.91988935  0.19117997  0.44699650    -0.61830
N2090       N  0.94167767  0.22002031  0.47173728    -0.06860
N2091       N  0.95193891  0.22223002  0.44754398    -0.59670
N2092       N  0.92197917  0.20067132  0.03464741    -0.06530
N2093       N  0.91770023  0.18931183  0.05821055    -0.62180
C2094       C  0.93466908  0.20179338  0.07505634     0.94600
C2095       C  0.93827203  0.20398096  0.43227031     0.94380
N2096       N  0.84218543  0.21732666  0.47296999    -0.07760
N2097       N  0.82148654  0.20344957  0.46387445    -0.60280
N2098       N  0.86274380  0.19938332  0.03176945    -0.05880
N2099       N  0.85800087  0.17645883  0.04490530    -0.61530
N2100       N  0.84244880  0.21625712  0.03215605    -0.07790
N2101       N  0.82295651  0.20404533  0.04509798    -0.60540
N2102       N  0.86293626  0.20102943  0.47165211    -0.05530
N2103       N  0.85696255  0.17712873  0.46068854    -0.61620
Mn2104     Mn  0.89325206  0.20052374  0.00219320     1.18440
C2105       C  0.83125598  0.17847143  0.45606232     0.96680
C2106       C  0.83348167  0.17949314  0.05332663     0.97340
N2107       N  0.94210894  0.28299787  0.47237060    -0.07810
N2108       N  0.95157367  0.28096688  0.44774057    -0.64120
N2109       N  0.92330874  0.30041321  0.03701085    -0.06620
N2110       N  0.92074431  0.31089570  0.06136198    -0.64800
N2111       N  0.94233410  0.28222070  0.03647761    -0.07320
N2112       N  0.95335113  0.28021688  0.06045655    -0.64390
N2113       N  0.92348214  0.30170972  0.47292793    -0.06220
N2114       N  0.91994787  0.31259564  0.44886456    -0.65080
Mn2115     Mn  0.94320905  0.25109465  0.00429002     1.10660
C2116       C  0.93749681  0.29953133  0.43321015     0.97900
C2117       C  0.93981246  0.29836585  0.07570988     0.97980
N2118       N  0.84319974  0.28582647  0.03373102    -0.07330
N2119       N  0.82328695  0.29801814  0.04594693    -0.62700
N2120       N  0.86406817  0.30381402  0.47470460    -0.06650
N2121       N  0.85986898  0.32718159  0.46213912    -0.59430
N2122       N  0.84313646  0.28783922  0.47427311    -0.07960
N2123       N  0.82379356  0.30134718  0.46188855    -0.62270
N2124       N  0.86365253  0.30250358  0.03447638    -0.06940
N2125       N  0.85836786  0.32539714  0.04755798    -0.59450
Mn2126     Mn  0.84170538  0.25187435  0.00320396     1.20190
Mn2127     Mn  0.89424205  0.30238551  0.00486676     1.10090
Cl2128     Cl  0.89246857  0.25149101  0.00353656    -0.87420
C2129       C  0.83348049  0.32240554  0.05481441     0.94910
C2130       C  0.83503757  0.32566857  0.45404559     0.94710
N2131       N  0.72507557  0.03632131  0.09719370    -0.07580
N2132       N  0.71787520  0.04995272  0.07516403    -0.59700
N2133       N  0.78133564  0.05282354  0.12291048    -0.07260
N2134       N  0.79401367  0.07590658  0.11871963    -0.61830
N2135       N  0.78238670  0.03629009  0.10183407    -0.06860
N2136       N  0.79494144  0.04932649  0.08220822    -0.59670
N2137       N  0.72261251  0.05292790  0.11814263    -0.06530
N2138       N  0.71273791  0.07691111  0.11098283    -0.62180
C2139       C  0.71018623  0.07523311  0.08435286     0.94600
C2140       C  0.80246396  0.07390550  0.09351804     0.94380
N2141       N  0.77932518  0.03578549  0.20295410    -0.07760
N2142       N  0.80246990  0.03616083  0.21514248    -0.60280
N2143       N  0.71752825  0.05275946  0.17934729    -0.05880
N2144       N  0.69415129  0.06317149  0.17428650    -0.61530
N2145       N  0.71658628  0.03479786  0.19907551    -0.07790
N2146       N  0.69227353  0.03266315  0.20762624    -0.60540
N2147       N  0.77902390  0.05402870  0.18346426    -0.05530
N2148       N  0.80161514  0.06702040  0.18191084    -0.61620
Mn2149     Mn  0.74995953  0.05319782  0.15149600     1.18440
C2150       C  0.81600577  0.05619238  0.20200513     0.96680
C2151       C  0.67845842  0.05067486  0.19214290     0.97340
N2152       N  0.78188275  0.46584148  0.10357057    -0.07810
N2153       N  0.79412906  0.45163201  0.08447221    -0.64120
N2154       N  0.72196234  0.45065238  0.12055425    -0.06620
N2155       N  0.71118693  0.42681239  0.11432271    -0.64800
N2156       N  0.72438102  0.46647827  0.09907146    -0.07320
N2157       N  0.71596016  0.45253086  0.07766649    -0.64390
N2158       N  0.78063194  0.45033609  0.12528574    -0.06220
N2159       N  0.79290267  0.42685312  0.12192767    -0.65080
Mn2160     Mn  0.75353985  0.00115207  0.09951809     1.10660
C2161       C  0.80118484  0.42734571  0.09659271     0.97900
C2162       C  0.70776477  0.42785516  0.08774555     0.97980
N2163       N  0.71674953  0.47161078  0.20160899    -0.07330
N2164       N  0.69329152  0.47224174  0.21266030    -0.62700
N2165       N  0.77851996  0.45169263  0.18584917    -0.06650
N2166       N  0.80111218  0.43864350  0.18442031    -0.59430
N2167       N  0.77936752  0.47138867  0.20402898    -0.07960
N2168       N  0.80299339  0.47222154  0.21507446    -0.62270
N2169       N  0.71719752  0.45292791  0.18244369    -0.06940
N2170       N  0.69431777  0.44047831  0.18008693    -0.59450
Mn2171     Mn  0.74814277  0.50352434  0.20361102     1.20190
Mn2172     Mn  0.74931551  0.45136288  0.15394317     1.10090
Cl2173     Cl  0.75023731  0.50228832  0.15189196    -0.87420
C2174       C  0.67966690  0.45231724  0.19937200     0.94910
C2175       C  0.81626700  0.45123612  0.20292104     0.94710
N2176       N  0.71904490  0.03425096  0.30563484    -0.07580
N2177       N  0.69546253  0.03406204  0.29450072    -0.59700
N2178       N  0.78189800  0.05082391  0.32618693    -0.07260
N2179       N  0.80578730  0.06051891  0.32991309    -0.61830
N2180       N  0.78146598  0.03272027  0.30652756    -0.06860
N2181       N  0.80515109  0.02987924  0.29659772    -0.59670
N2182       N  0.71980162  0.05259036  0.32508735    -0.06530
N2183       N  0.69688787  0.06489413  0.32779802    -0.62180
C2184       C  0.68191593  0.05356736  0.30834525     0.94600
C2185       C  0.82023307  0.04736998  0.31120685     0.94380
N2186       N  0.77753085  0.03575312  0.40883394    -0.07760
N2187       N  0.78664144  0.04904555  0.43033286    -0.60280
N2188       N  0.72058187  0.05295638  0.38552929    -0.05880
N2189       N  0.70783044  0.07603163  0.38968194    -0.61530
N2190       N  0.71981947  0.03657847  0.40668312    -0.07790
N2191       N  0.70722477  0.04963272  0.42633252    -0.60540
N2192       N  0.77915227  0.05221490  0.38775310    -0.05530
N2193       N  0.79002823  0.07589902  0.39428550    -0.61620
Mn2194     Mn  0.75055943  0.05228336  0.35554018     1.18440
C2195       C  0.79463676  0.07396776  0.42065830     0.96680
C2196       C  0.69945928  0.07403925  0.41487297     0.97340
N2197       N  0.78069875  0.46957927  0.30509658    -0.07810
N2198       N  0.80386160  0.47032139  0.29355244    -0.64120
N2199       N  0.71906722  0.45104772  0.32341816    -0.06620
N2200       N  0.69583470  0.43928174  0.32517445    -0.64800
N2201       N  0.71894555  0.47015400  0.30472693    -0.07320
N2202       N  0.69559693  0.47163956  0.29346662    -0.64390
N2203       N  0.78077243  0.45104920  0.32433663    -0.06220
N2204       N  0.80387217  0.43894116  0.32631952    -0.65080
Mn2205     Mn  0.74988573  0.00179427  0.30404344     1.10660
C2206       C  0.81799697  0.45078310  0.30666854     0.97900
C2207       C  0.68125746  0.45216804  0.30620716     0.97980
N2208       N  0.71967991  0.46602998  0.40576071    -0.07330
N2209       N  0.70772063  0.45308093  0.42573838    -0.62700
N2210       N  0.77857723  0.45006349  0.38623587    -0.06650
N2211       N  0.79256925  0.42790606  0.39123107    -0.59430
N2212       N  0.77770111  0.46652275  0.40742569    -0.07960
N2213       N  0.79062275  0.45478510  0.42766178    -0.62270
N2214       N  0.72016633  0.44942955  0.38463903    -0.06940
N2215       N  0.70811770  0.42602496  0.38941038    -0.59450
Mn2216     Mn  0.74849097  0.00112752  0.40826030     1.20190
Mn2217     Mn  0.74974958  0.45009214  0.35418186     1.10090
Cl2218     Cl  0.74960172  0.00123710  0.35608405    -0.87420
C2219       C  0.70047589  0.42831544  0.41482635     0.94910
C2220       C  0.80025412  0.43102286  0.41677141     0.94710
N2221       N  0.52912821  0.16551708  0.22240519    -0.07580
N2222       N  0.54225680  0.18639845  0.21159231    -0.59700
N2223       N  0.97012469  0.14468394  0.20516768    -0.07260
N2224       N  0.95587262  0.14885500  0.18374913    -0.61830
N2225       N  0.97041312  0.16668347  0.22087215    -0.06860
N2226       N  0.95683022  0.18697975  0.20894887    -0.59670
N2227       N  0.52939668  0.14412724  0.20583680    -0.06530
N2228       N  0.54354112  0.14953158  0.18467569    -0.62180
C2229       C  0.55180076  0.17567221  0.18838306     0.94600
C2230       C  0.94739963  0.17499963  0.18588744     0.94380
N2231       N  0.96683065  0.06245476  0.22382757    -0.07760
N2232       N  0.94271875  0.05313344  0.22655683    -0.60280
N2233       N  0.52902781  0.08058217  0.20422483    -0.05880
N2234       N  0.55157802  0.08169072  0.19156377    -0.61530
N2235       N  0.52905816  0.06051260  0.22187397    -0.07790
N2236       N  0.55177864  0.04760713  0.22156704    -0.60540
N2237       N  0.96736217  0.08184768  0.20533930    -0.05530
N2238       N  0.94381161  0.08558330  0.19483373    -0.61620
Mn2239     Mn  0.49908941  0.11242145  0.20479276     1.18440
C2240       C  0.92865418  0.06729385  0.20800519     0.96680
C2241       C  0.56567247  0.06074690  0.20238092     0.97340
N2242       N  0.97041613  0.16486557  0.28820185    -0.07810
N2243       N  0.95783124  0.18588228  0.29953525    -0.64120
N2244       N  0.52913830  0.14172715  0.30434431    -0.06620
N2245       N  0.54322790  0.14493704  0.32601996    -0.64800
N2246       N  0.52889910  0.16444311  0.28966691    -0.07320
N2247       N  0.54221988  0.18418836  0.30267403    -0.64390
N2248       N  0.96992497  0.14312093  0.30432831    -0.06220
N2249       N  0.95624619  0.14864543  0.32587377    -0.65080
Mn2250     Mn  0.99970734  0.16666196  0.25531920     1.10660
C2251       C  0.94845601  0.17508526  0.32269338     0.97900
C2252       C  0.55149518  0.17120904  0.32522955     0.97980
N2253       N  0.53112201  0.05963684  0.28331924    -0.07330
N2254       N  0.55469579  0.04848480  0.28146591    -0.62700
N2255       N  0.96918625  0.07844253  0.30314286    -0.06650
N2256       N  0.94695392  0.07845024  0.31637600    -0.59430
N2257       N  0.96926156  0.05880819  0.28496027    -0.07960
N2258       N  0.94699346  0.04500089  0.28549474    -0.62270
N2259       N  0.53087496  0.07851096  0.30236273    -0.06940
N2260       N  0.55412165  0.08023918  0.31401791    -0.59450
Mn2261     Mn  0.49908210  0.05886566  0.25333972     1.20190
Mn2262     Mn  0.49959232  0.11014284  0.30386638     1.10090
Cl2263     Cl  0.49933619  0.11228355  0.25438343    -0.87420
C2264       C  0.56876102  0.06111015  0.30110864     0.94910
C2265       C  0.93324816  0.05724721  0.30543471     0.94710
N2266       N  0.52988976  0.44346579  0.22185081    -0.07580
N2267       N  0.55319919  0.45522957  0.22261490    -0.59700
N2268       N  0.96733839  0.42296314  0.20455841    -0.07260
N2269       N  0.94370575  0.42041548  0.19386040    -0.61830
N2270       N  0.96787558  0.44352638  0.22182089    -0.06860
N2271       N  0.94466257  0.45534393  0.22305421    -0.59670
N2272       N  0.52963513  0.42321973  0.20420059    -0.06530
N2273       N  0.55272511  0.42089901  0.19263287    -0.62180
C2274       C  0.56711531  0.44138394  0.20389959     0.94600
C2275       C  0.92973129  0.44109947  0.20528636     0.94380
N2276       N  0.97059323  0.33773227  0.22164930    -0.07760
N2277       N  0.95976695  0.31589560  0.20959573    -0.60280
N2278       N  0.52839316  0.35942643  0.20514321    -0.05880
N2279       N  0.54220243  0.35369785  0.18380067    -0.61530
N2280       N  0.52890547  0.33856329  0.22228072    -0.07790
N2281       N  0.54249068  0.31767196  0.21177294    -0.60540
N2282       N  0.96909971  0.35930478  0.20542469    -0.05530
N2283       N  0.95622769  0.35298746  0.18343818    -0.61620
Mn2284     Mn  0.99855162  0.39172038  0.20440649     1.18440
C2285       C  0.95023888  0.32606179  0.18599080     0.96680
C2286       C  0.55112620  0.32787327  0.18793943     0.97340
N2287       N  0.96787202  0.44584998  0.28298011    -0.07810
N2288       N  0.94465185  0.45786816  0.28157251    -0.64120
N2289       N  0.52954375  0.42712561  0.30224365    -0.06620
N2290       N  0.55253146  0.42523088  0.31427581    -0.64800
N2291       N  0.53007074  0.44598793  0.28336786    -0.07320
N2292       N  0.55359780  0.45726609  0.28227870    -0.64390
N2293       N  0.96784546  0.42654954  0.30153368    -0.06220
N2294       N  0.94476904  0.42513815  0.31314288    -0.65080
Mn2295     Mn  0.99901488  0.44611593  0.25239677     1.10660
C2296       C  0.93059891  0.44515810  0.30088158     0.97900
C2297       C  0.56749115  0.44424340  0.30187574     0.97980
N2298       N  0.52854017  0.34116691  0.29016487    -0.07330
N2299       N  0.53863501  0.32096525  0.30525444    -0.62700
N2300       N  0.96981682  0.36202752  0.30468440    -0.06650
N2301       N  0.95635786  0.35654594  0.32642746    -0.59430
N2302       N  0.97022311  0.34023642  0.28860125    -0.07960
N2303       N  0.95767655  0.31930929  0.30006700    -0.62270
N2304       N  0.52999470  0.36463042  0.30373739    -0.06940
N2305       N  0.54288631  0.36130912  0.32623898    -0.59450
Mn2306     Mn  0.99966084  0.33831003  0.25573593     1.20190
Mn2307     Mn  0.99908652  0.39546490  0.30334072     1.10090
Cl2308     Cl  0.99901039  0.39234550  0.25394637    -0.87420
C2309       C  0.54760397  0.33411971  0.32780735     0.94910
C2310       C  0.94855792  0.33005693  0.32345127     0.94710
C2311       C  0.85878876  0.43177466  0.28669357    -0.10620
C2312       C  0.84678798  0.44908841  0.30555481     0.05580
C2313       C  0.86253201  0.46465663  0.32340531    -0.04380
C2314       C  0.88983268  0.46368855  0.32138801    -0.08830
C2315       C  0.90181657  0.44655827  0.30236028     0.04700
C2316       C  0.88609063  0.42993886  0.28545840    -0.03860
Br2317     Br  0.90117633  0.40313133  0.26168882    -0.03550
H2318       H  0.84692600  0.41924733  0.27328740     0.08610
H2319       H  0.90171231  0.47606317  0.33490763     0.06630
Br2320     Br  0.84754440  0.48726512  0.35104131    -0.03980
C2321       C  0.63934852  0.42975793  0.32008176    -0.10620
C2322       C  0.65218876  0.44974117  0.30442381     0.05580
C2323       C  0.63668906  0.46808399  0.28903277    -0.04380
C2324       C  0.60945444  0.46658435  0.28995740    -0.08830
C2325       C  0.59653432  0.44628173  0.30486739     0.04700
C2326       C  0.61197147  0.42771475  0.32036621    -0.03860
Br2327     Br  0.59773446  0.39905012  0.34261067    -0.03550
H2328       H  0.65065440  0.41552619  0.33229045     0.08610
H2329       H  0.59817753  0.48141967  0.27879260     0.06630
Br2330     Br  0.65091276  0.49553583  0.26580874    -0.03980
C2331       C  0.86287788  0.06442605  0.32962470    -0.10620
C2332       C  0.84940046  0.04824093  0.31053298     0.05580
C2333       C  0.86429033  0.03277797  0.29197455    -0.04380
C2334       C  0.89147751  0.03507755  0.29173032    -0.08830
C2335       C  0.90483567  0.05245470  0.30975492     0.04700
C2336       C  0.89020886  0.06638111  0.32965194    -0.03860
Br2337     Br  0.90591674  0.08760662  0.35811623    -0.03550
H2338       H  0.85213385  0.07568656  0.34478618     0.08610
H2339       H  0.90218748  0.02364401  0.27670130     0.06630
Br2340     Br  0.84932753  0.00871772  0.26559262    -0.03980
C2341       C  0.63778775  0.05355458  0.32981876    -0.10620
C2342       C  0.65308037  0.05720507  0.30678376     0.05580
C2343       C  0.64051263  0.06407779  0.28259223    -0.04380
C2344       C  0.61312078  0.06418609  0.28081112    -0.08830
C2345       C  0.59771185  0.05945423  0.30358643     0.04700
C2346       C  0.61038016  0.05526022  0.32848343    -0.03860
Br2347     Br  0.59111631  0.05136286  0.36109287    -0.03550
H2348       H  0.64717171  0.04919491  0.34889264     0.08610
H2349       H  0.60383942  0.06923127  0.26184429     0.06630
Br2350     Br  0.66037401  0.07704642  0.25291419    -0.03980
C2351       C  0.86072571  0.47077187  0.20942185    -0.10620
C2352       C  0.84517394  0.44761832  0.20383230     0.05580
C2353       C  0.85776314  0.42241855  0.19695122    -0.04380
C2354       C  0.88520663  0.42099002  0.19619675    -0.08830
C2355       C  0.90072093  0.44400380  0.20322992     0.04700
C2356       C  0.88795453  0.46890905  0.21009929    -0.03860
Br2357     Br  0.90648220  0.50131304  0.22052259    -0.03550
H2358       H  0.85163058  0.49071834  0.21279327     0.08610
H2359       H  0.89441442  0.40140813  0.19123744     0.06630
Br2360     Br  0.83880334  0.38889833  0.18952097    -0.03980
C2361       C  0.63509349  0.46342643  0.18220909    -0.10620
C2362       C  0.65094031  0.44902079  0.20063689     0.05580
C2363       C  0.63910811  0.43104033  0.21912295    -0.04380
C2364       C  0.61178951  0.42855422  0.21971471    -0.08830
C2365       C  0.59590335  0.44335078  0.20160167     0.04700
C2366       C  0.60780282  0.46062027  0.18250475    -0.03860
Br2367     Br  0.58739906  0.48168939  0.15736754    -0.03550
H2368       H  0.64398081  0.47710850  0.16767269     0.08610
H2369       H  0.60290002  0.41505135  0.23440471     0.06630
Br2370     Br  0.65963873  0.40892623  0.24324637    -0.03980
C2371       C  0.88430855  0.07302998  0.22814563    -0.10620
C2372       C  0.89972328  0.06638272  0.20576879     0.05580
C2373       C  0.88720165  0.05820651  0.18179828    -0.04380
C2374       C  0.86000792  0.05469465  0.18111414    -0.08830
C2375       C  0.84469332  0.06026771  0.20378631     0.04700
C2376       C  0.85692852  0.07099452  0.22687929    -0.03860
Br2377     Br  0.83661775  0.08634698  0.25536274    -0.03550
H2378       H  0.89354219  0.08053408  0.24637463     0.08610
H2379       H  0.85077061  0.04745284  0.16278401     0.06630
Br2380     Br  0.90658417  0.05035857  0.14991421    -0.03980
C2381       C  0.60802406  0.07626326  0.18243159    -0.10620
C2382       C  0.59415636  0.05661235  0.19757858     0.05580
C2383       C  0.60823601  0.03439002  0.20900397    -0.04380
C2384       C  0.63520111  0.03231119  0.20551158    -0.08830
C2385       C  0.64935814  0.05279589  0.19204694     0.04700
C2386       C  0.63528694  0.07471356  0.17972945    -0.03860
Br2387     Br  0.65170671  0.10385216  0.15979112    -0.03550
H2388       H  0.59777205  0.09355872  0.17332152     0.08610
H2389       H  0.64533930  0.01467232  0.21387198     0.06630
Br2390     Br  0.59228123  0.00663727  0.23054942    -0.03980
C2391       C  0.81193214  0.37762698  0.10125442    -0.10620
C2392       C  0.80882871  0.40062212  0.08385275     0.05580
C2393       C  0.81039715  0.39599317  0.05596974    -0.04380
C2394       C  0.81590956  0.36917978  0.04647208    -0.08830
C2395       C  0.81898000  0.34662510  0.06416008     0.04700
C2396       C  0.81643938  0.35096727  0.09164068    -0.03860
Br2397     Br  0.82104459  0.32134970  0.11693345    -0.03550
H2398       H  0.81080527  0.38013229  0.12279601     0.08610
H2399       H  0.81920231  0.36616442  0.02523840     0.06630
Br2400     Br  0.80626412  0.42494046  0.02990919    -0.03980
C2401       C  0.80671067  0.13701515  0.04772152    -0.10620
C2402       C  0.82012917  0.15546335  0.06486499     0.05580
C2403       C  0.82903988  0.14584960  0.08979272    -0.04380
C2404       C  0.82525685  0.11827545  0.09704693    -0.08830
C2405       C  0.81162992  0.09961151  0.08032004     0.04700
C2406       C  0.80193409  0.10936374  0.05545445    -0.03860
Br2407     Br  0.78129406  0.08661314  0.03192397    -0.03550
H2408       H  0.80076999  0.14384469  0.02790043     0.08610
H2409       H  0.83224773  0.11160259  0.11657344     0.06630
Br2410     Br  0.84706355  0.16985489  0.11448855    -0.03980
C2411       C  0.79691483  0.39300454  0.45034655    -0.10620
C2412       C  0.81154184  0.40709852  0.43085424     0.05580
C2413       C  0.83232218  0.39328123  0.41844091    -0.04380
C2414       C  0.83763751  0.36579060  0.42467747    -0.08830
C2415       C  0.82271701  0.35104931  0.44335329     0.04700
C2416       C  0.80221433  0.36498842  0.45649895    -0.03860
Br2417     Br  0.78114263  0.34686634  0.48281120    -0.03550
H2418       H  0.78034016  0.40317549  0.45949865     0.08610
H2419       H  0.85434771  0.35621461  0.41543373     0.06630
Br2420     Br  0.85397011  0.41112088  0.39225789    -0.03980
C2421       C  0.82698840  0.12797040  0.46394848    -0.10800
C2422       C  0.81639910  0.15239962  0.45250383     0.05580
C2423       C  0.79458445  0.15021977  0.43554491    -0.04380
C2424       C  0.78598016  0.12387444  0.42764578    -0.08830
C2425       C  0.79887711  0.09954156  0.43637260     0.04700
C2426       C  0.81844903  0.10165555  0.45596491    -0.03860
Br2427     Br  0.83628540  0.06964221  0.46972035    -0.03550
H2428       H  0.84322058  0.12925726  0.47794284     0.08610
H2429       H  0.77025155  0.12246602  0.41305729     0.06630
Br2430     Br  0.77797774  0.18215852  0.42014630    -0.03980
C2431       C  0.96133790  0.29623193  0.38956244    -0.10620
C2432       C  0.93825297  0.30218649  0.40335795     0.05580
C2433       C  0.91616925  0.31041403  0.38802734    -0.04380
C2434       C  0.91888346  0.31780206  0.36095707    -0.08830
C2435       C  0.94256057  0.31367637  0.34775078     0.04700
C2436       C  0.96296229  0.30049713  0.36179459    -0.03860
Br2437     Br  0.99331399  0.28840124  0.34349772    -0.03550
H2438       H  0.97829526  0.28876107  0.40039731     0.08610
H2439       H  0.90251157  0.32686811  0.35023675     0.06630
Br2440     Br  0.88147131  0.30858295  0.40165227    -0.03980
C2441       C  0.92064006  0.30011375  0.12168019    -0.10620
C2442       C  0.94277024  0.30086285  0.10512767     0.05580
C2443       C  0.96744129  0.30493277  0.11686447    -0.04380
C2444       C  0.96970283  0.30906954  0.14452499    -0.08830
C2445       C  0.94752591  0.30997680  0.16097607     0.04700
C2446       C  0.92288462  0.30481791  0.14942680    -0.03860
Br2447     Br  0.89182209  0.30626272  0.17054725    -0.03550
H2448       H  0.90148979  0.29681211  0.11289367     0.08610
H2449       H  0.98862419  0.31455215  0.15282132     0.06630
Br2450     Br  0.99780496  0.31022772  0.09531385    -0.03980
C2451       C  0.96099333  0.20675563  0.35935881    -0.10620
C2452       C  0.94131776  0.19120081  0.34663925     0.05580
C2453       C  0.91937136  0.18327102  0.36146369    -0.04380
C2454       C  0.91839740  0.18865111  0.38899816    -0.08830
C2455       C  0.93924541  0.20184493  0.40246042     0.04700
C2456       C  0.96020268  0.21202302  0.38703619    -0.03860
Br2457     Br  0.98979118  0.23022116  0.40269190    -0.03550
H2458       H  0.97833910  0.21238026  0.34831167     0.08610
H2459       H  0.90160263  0.18142469  0.40004360     0.06630
Br2460     Br  0.89118149  0.16309133  0.34509839    -0.03980
C2461       C  0.92338053  0.16947993  0.14372798    -0.10620
C2462       C  0.93618171  0.18801852  0.16121050     0.05580
C2463       C  0.94496647  0.21338696  0.15058847    -0.04380
C2464       C  0.94346068  0.21826603  0.12264702    -0.08830
C2465       C  0.93407623  0.19766140  0.10482283     0.04700
C2466       C  0.92329898  0.17329083  0.11600661    -0.03860
Br2467     Br  0.91153051  0.14199272  0.09510970    -0.03550
H2468       H  0.91620452  0.14988646  0.15140708     0.08610
H2469       H  0.95066639  0.23772751  0.11478405     0.06630
Br2470     Br  0.96041390  0.24093063  0.17317029    -0.03980
C2471       C  0.69564362  0.35362189  0.43670167    -0.10620
C2472       C  0.66892780  0.35166763  0.44195753     0.05580
C2473       C  0.65347190  0.37642790  0.44047973    -0.04380
C2474       C  0.66511618  0.40195348  0.43514087    -0.08830
C2475       C  0.69146141  0.40359152  0.42913750     0.04700
C2476       C  0.70670225  0.37906346  0.42938117    -0.03860
Br2477     Br  0.74213318  0.37864892  0.41743430    -0.03550
H2478       H  0.70778436  0.33520692  0.43733671     0.08610
H2479       H  0.65301587  0.42034772  0.43333258     0.06630
Br2480     Br  0.61594942  0.37820579  0.44310215    -0.03980
C2481       C  0.67191716  0.11505668  0.41156659    -0.10620
C2482       C  0.68903844  0.09934085  0.42764018     0.05580
C2483       C  0.70111432  0.11228904  0.44992355    -0.04380
C2484       C  0.69508574  0.14010452  0.45611317    -0.08830
C2485       C  0.67785670  0.15552109  0.43981990     0.04700
C2486       C  0.66675415  0.14282550  0.41715969    -0.03860
Br2487     Br  0.64448302  0.16305564  0.39302283    -0.03550
H2488       H  0.66341441  0.10598247  0.39360859     0.08610
H2489       H  0.70305649  0.14935545  0.47421929     0.06630
Br2490     Br  0.72668043  0.09360105  0.47161476    -0.03980
C2491       C  0.68413232  0.40227706  0.05185209    -0.10620
C2492       C  0.70278071  0.40220855  0.07233242     0.05580
C2493       C  0.71389254  0.37655029  0.08056161    -0.04380
C2494       C  0.70383880  0.35150187  0.07076932    -0.08830
C2495       C  0.68297991  0.35155470  0.05266272     0.04700
C2496       C  0.67427819  0.37723588  0.04183892    -0.03860
Br2497     Br  0.64872518  0.37978797  0.01357335    -0.03550
H2498       H  0.67606376  0.42175524  0.04476957     0.08610
H2499       H  0.71129477  0.33202461  0.07852632     0.06630
Br2500     Br  0.74250689  0.37410840  0.10555341    -0.03980
C2501       C  0.68845484  0.10153165  0.04776905    -0.10620
C2502       C  0.70697219  0.10076205  0.06835030     0.05580
C2503       C  0.71886775  0.12594720  0.07684816    -0.04380
C2504       C  0.70930451  0.15144407  0.06768128    -0.08830
C2505       C  0.68820810  0.15225392  0.04991334     0.04700
C2506       C  0.67908965  0.12702327  0.03836682    -0.03860
Br2507     Br  0.65282956  0.12569737  0.01067654    -0.03550
H2508       H  0.67977573  0.08242394  0.04048331     0.08610
H2509       H  0.71703096  0.17055445  0.07602313     0.06630
Br2510     Br  0.74738356  0.12714914  0.10205145    -0.03980
C2511       C  0.53423191  0.32194894  0.40161623    -0.10620
C2512       C  0.55284583  0.30215742  0.40829485     0.05580
C2513       C  0.56965865  0.29179907  0.38828231    -0.04380
C2514       C  0.56706227  0.30106966  0.36161401    -0.08830
C2515       C  0.54872721  0.32165689  0.35501696     0.04700
C2516       C  0.53235069  0.33225573  0.37567812    -0.03860
Br2517     Br  0.50648684  0.36093837  0.37092507    -0.03550
H2518       H  0.52178690  0.33047183  0.41709048     0.08610
H2519       H  0.58014260  0.29322787  0.34640571     0.06630
Br2520     Br  0.59743097  0.26654699  0.39692395    -0.03980
C2521       C  0.55099846  0.28368964  0.12584834    -0.10620
C2522       C  0.56646642  0.30045116  0.10911883     0.05580
C2523       C  0.58220029  0.32115846  0.12155384    -0.04380
C2524       C  0.57971858  0.32662327  0.14895714    -0.08830
C2525       C  0.56181981  0.31226621  0.16483641     0.04700
C2526       C  0.54852373  0.28952084  0.15341955    -0.03860
Br2527     Br  0.52472833  0.26790796  0.17402194    -0.03550
H2528       H  0.53957448  0.26701314  0.11722235     0.08610
H2529       H  0.59018070  0.34414110  0.15747498     0.06630
Br2530     Br  0.60633180  0.34480816  0.10301430    -0.03980
C2531       C  0.55288992  0.21338037  0.38943747    -0.10620
C2532       C  0.56166973  0.19267818  0.40733627     0.05580
C2533       C  0.57201770  0.16796735  0.39638220    -0.04380
C2534       C  0.57284920  0.16428969  0.36868031    -0.08830
C2535       C  0.56128100  0.18338125  0.35089500     0.04700
C2536       C  0.55232999  0.20873959  0.36145218    -0.03860
Br2537     Br  0.53840369  0.23682838  0.33859221    -0.03550
H2538       H  0.54610547  0.23306211  0.39722244     0.08610
H2539       H  0.57996854  0.14458532  0.36111853     0.06630
Br2540     Br  0.58214610  0.13630607  0.41758733    -0.03980
C2541       C  0.58324466  0.19103516  0.12327910    -0.10620
C2542       C  0.56127115  0.19940077  0.10823027     0.05580
C2543       C  0.53799625  0.20583490  0.12193903    -0.04380
C2544       C  0.53663792  0.20211361  0.14970145    -0.08830
C2545       C  0.55800132  0.19180130  0.16434154     0.04700
C2546       C  0.58166647  0.18709703  0.15104281    -0.03860
Br2547     Br  0.61151191  0.17277722  0.16984584    -0.03550
H2548       H  0.60150627  0.18656305  0.11334497     0.08610
H2549       H  0.51792615  0.20452975  0.15946353     0.06630
Br2550     Br  0.50634216  0.21631565  0.10387428    -0.03980
N2551       N  0.66012071  0.21679105  0.53159904    -0.07580
N2552       N  0.68166595  0.20298561  0.53843264    -0.59700
N2553       N  0.63588619  0.19850310  0.97501330    -0.07260
N2554       N  0.64044028  0.17566705  0.96155888    -0.61830
N2555       N  0.65543647  0.21616333  0.97277872    -0.06860
N2556       N  0.67436467  0.20447281  0.95853137    -0.59670
N2557       N  0.63966998  0.20048325  0.53526523    -0.06530
N2558       N  0.64680184  0.17670235  0.54570918    -0.62180
C2559       C  0.67280264  0.17802665  0.54719772     0.94600
C2560       C  0.66415379  0.17949020  0.95120972     0.94380
N2561       N  0.55798026  0.21617700  0.97527820    -0.07760
N2562       N  0.54823593  0.21706275  0.95049171    -0.60280
N2563       N  0.57940851  0.19968087  0.53985058    -0.05880
N2564       N  0.58263647  0.18937569  0.56419758    -0.61530
N2565       N  0.55956433  0.21683961  0.53927752    -0.07790
N2566       N  0.54888416  0.21849680  0.56321687    -0.60540
N2567       N  0.57674997  0.19767835  0.97654403    -0.05530
N2568       N  0.57988798  0.18560617  0.95311118    -0.61620
Mn2569     Mn  0.60739711  0.19882523  0.50703615     1.18440
C2570       C  0.56193958  0.19740743  0.93694795     0.96680
C2571       C  0.56324603  0.20112931  0.57859135     0.97340
N2572       N  0.65280891  0.28657495  0.97182491    -0.07810
N2573       N  0.67048485  0.30118441  0.95830049    -0.64120
N2574       N  0.63660432  0.30230563  0.53337833    -0.06620
N2575       N  0.64235478  0.32640173  0.54412138    -0.64800
N2576       N  0.65771504  0.28670958  0.53112367    -0.07320
N2577       N  0.67836568  0.30101118  0.53962477    -0.64390
N2578       N  0.63123020  0.30134697  0.97327688    -0.06220
N2579       N  0.63328406  0.32457524  0.96014847    -0.65080
Mn2580     Mn  0.65756504  0.25163275  0.00165856     1.10660
C2581       C  0.65748986  0.32484682  0.95081927     0.97900
C2582       C  0.66823716  0.32571769  0.54769040     0.97980
N2583       N  0.55893744  0.27941287  0.54037201    -0.07330
N2584       N  0.55129247  0.27720474  0.56571522    -0.62700
N2585       N  0.57320269  0.29863741  0.97555291    -0.06650
N2586       N  0.57489672  0.31021455  0.95170572    -0.59430
N2587       N  0.55533803  0.27921252  0.97556543    -0.07960
N2588       N  0.54441010  0.27716199  0.95147480    -0.62270
N2589       N  0.57697447  0.29860360  0.53870679    -0.06940
N2590       N  0.58164514  0.30982298  0.56233987    -0.59450
Mn2591     Mn  0.55634753  0.24791036  0.50750704     1.20190
Mn2592     Mn  0.60393589  0.30028827  0.00550136     1.10090
Cl2593     Cl  0.60694334  0.24959254  0.50548301    -0.87420
C2594       C  0.56561696  0.29652928  0.57924557     0.94910
C2595       C  0.55693799  0.29667015  0.93694307     0.94710
N2596       N  0.94049950  0.21938077  0.53646587    -0.07580
N2597       N  0.94891992  0.22105594  0.56171787    -0.59700
N2598       N  0.92276867  0.20173478  0.97125284    -0.07260
N2599       N  0.91989026  0.19118005  0.94699637    -0.61830
N2600       N  0.94167819  0.22002025  0.97173762    -0.06860
N2601       N  0.95194012  0.22222975  0.94754460    -0.59670
N2602       N  0.92197980  0.20067119  0.53464717    -0.06530
N2603       N  0.91770124  0.18931161  0.55821030    -0.62180
C2604       C  0.93467023  0.20179322  0.57505587     0.94600
C2605       C  0.93827348  0.20398078  0.93227062     0.94380
N2606       N  0.84218559  0.21732681  0.97296902    -0.07760
N2607       N  0.82148672  0.20344949  0.96387367    -0.60280
N2608       N  0.86274426  0.19938268  0.53177032    -0.05880
N2609       N  0.85800166  0.17645809  0.54490620    -0.61530
N2610       N  0.84244914  0.21625633  0.53215716    -0.07790
N2611       N  0.82295710  0.20404426  0.54509932    -0.60540
N2612       N  0.86293646  0.20102959  0.97165133    -0.05530
N2613       N  0.85696277  0.17712871  0.96068807    -0.61620
Mn2614     Mn  0.89325217  0.20052348  0.50219360     1.18440
C2615       C  0.83125619  0.17847123  0.95606185     0.96680
C2616       C  0.83348252  0.17949209  0.55332787     0.97340
N2617       N  0.94210934  0.28299776  0.97237102    -0.07810
N2618       N  0.95157394  0.28096644  0.94774097    -0.64120
N2619       N  0.92330879  0.30041325  0.53701064    -0.06620
N2620       N  0.92074421  0.31089561  0.56136180    -0.64800
N2621       N  0.94233420  0.28222080  0.53647739    -0.07320
N2622       N  0.95335112  0.28021691  0.56045640    -0.64390
N2623       N  0.92348269  0.30170981  0.97292828    -0.06220
N2624       N  0.91994846  0.31259555  0.94886485    -0.65080
Mn2625     Mn  0.94320900  0.25109474  0.50428966     1.10660
C2626       C  0.93749719  0.29953089  0.93321047     0.97900
C2627       C  0.93981231  0.29836577  0.57570976     0.97980
N2628       N  0.84319996  0.28582613  0.53373188    -0.07330
N2629       N  0.82328722  0.29801790  0.54594780    -0.62700
N2630       N  0.86406857  0.30381458  0.97470428    -0.06650
N2631       N  0.85986937  0.32718236  0.96213915    -0.59430
N2632       N  0.84313692  0.28783968  0.97427230    -0.07960
N2633       N  0.82379408  0.30134773  0.96188775    -0.62270
N2634       N  0.86365266  0.30250338  0.53447677    -0.06940
N2635       N  0.85836800  0.32539712  0.54755808    -0.59450
Mn2636     Mn  0.84170533  0.25187390  0.50320499     1.20190
Mn2637     Mn  0.89424186  0.30238528  0.50486678     1.10090
Cl2638     Cl  0.89246853  0.25149077  0.50353694    -0.87420
C2639       C  0.83348072  0.32240551  0.55481479     0.94910
C2640       C  0.83503804  0.32566931  0.95404532     0.94710
N2641       N  0.72507277  0.03632150  0.59719484    -0.07580
N2642       N  0.71787377  0.04995320  0.57516491    -0.59700
N2643       N  0.78133179  0.05282376  0.62291267    -0.07260
N2644       N  0.79400995  0.07590681  0.61872187    -0.61830
N2645       N  0.78238374  0.03628986  0.60183663    -0.06860
N2646       N  0.79493926  0.04932589  0.58221106    -0.59670
N2647       N  0.72260884  0.05292792  0.61814379    -0.06530
N2648       N  0.71273510  0.07691141  0.61098362    -0.62180
C2649       C  0.71018481  0.07523364  0.58435350     0.94600
C2650       C  0.80246130  0.07390520  0.59352066     0.94380
N2651       N  0.77932038  0.03578419  0.70295569    -0.07760
N2652       N  0.80246532  0.03615927  0.71514362    -0.60280
N2653       N  0.71752314  0.05275868  0.67934891    -0.05880
N2654       N  0.69414602  0.06317070  0.67428864    -0.61530
N2655       N  0.71658159  0.03479742  0.69907746    -0.07790
N2656       N  0.69226910  0.03266299  0.70762898    -0.60540
N2657       N  0.77901871  0.05402799  0.68346634    -0.05530
N2658       N  0.80160981  0.06701985  0.68191287    -0.61620
Mn2659     Mn  0.74995495  0.05319750  0.65149779     1.18440
C2660       C  0.81600081  0.05619131  0.70200653     0.96680
C2661       C  0.67845357  0.05067440  0.69214578     0.97340
N2662       N  0.78188276  0.46584155  0.60357054    -0.07810
N2663       N  0.79412908  0.45163206  0.58447220    -0.64120
N2664       N  0.72196234  0.45065247  0.62055422    -0.06620
N2665       N  0.71118692  0.42681249  0.61432267    -0.64800
N2666       N  0.72438103  0.46647837  0.59907145    -0.07320
N2667       N  0.71596016  0.45253097  0.57766647    -0.64390
N2668       N  0.78063193  0.45033618  0.62528571    -0.06220
N2669       N  0.79290268  0.42685322  0.62192768    -0.65080
Mn2670     Mn  0.75353659  0.00115197  0.59951990     1.10660
C2671       C  0.80118486  0.42734577  0.59659273     0.97900
C2672       C  0.70776476  0.42785527  0.58774552     0.97980
N2673       N  0.71674957  0.47161079  0.70160901    -0.07330
N2674       N  0.69329159  0.47224175  0.71266038    -0.62700
N2675       N  0.77852002  0.45169262  0.68584911    -0.06650
N2676       N  0.80111225  0.43864350  0.68442017    -0.59430
N2677       N  0.77936763  0.47138865  0.70402893    -0.07960
N2678       N  0.80299354  0.47222152  0.71507433    -0.62270
N2679       N  0.71719749  0.45292797  0.68244366    -0.06940
N2680       N  0.69431769  0.44047844  0.68008691    -0.59450
Mn2681     Mn  0.74814284  0.50352433  0.70361102     1.20190
Mn2682     Mn  0.74931551  0.45136294  0.65394314     1.10090
Cl2683     Cl  0.75023736  0.50228838  0.65189195    -0.87420
C2684       C  0.67966688  0.45231734  0.69937205     0.94910
C2685       C  0.81626713  0.45123611  0.70292086     0.94710
N2686       N  0.71904163  0.03425177  0.80563586    -0.07580
N2687       N  0.69545909  0.03406376  0.79450205    -0.59700
N2688       N  0.78189557  0.05082306  0.82618682    -0.07260
N2689       N  0.80578506  0.06051763  0.82991276    -0.61830
N2690       N  0.78146301  0.03271931  0.80652752    -0.06860
N2691       N  0.80514808  0.02987778  0.79659756    -0.59670
N2692       N  0.71979920  0.05259102  0.82508846    -0.06530
N2693       N  0.69688586  0.06489561  0.82779948    -0.62180
C2694       C  0.68191326  0.05356952  0.80834683     0.94600
C2695       C  0.82023049  0.04736834  0.81120653     0.94380
N2696       N  0.77753026  0.03575248  0.90883384    -0.07760
N2697       N  0.78664120  0.04904493  0.93033263    -0.60280
N2698       N  0.72058092  0.05295628  0.88553037    -0.05880
N2699       N  0.70782958  0.07603153  0.88968308    -0.61530
N2700       N  0.71981883  0.03657846  0.90668428    -0.07790
N2701       N  0.70722438  0.04963282  0.92633380    -0.60540
N2702       N  0.77915131  0.05221429  0.88775299    -0.05530
N2703       N  0.79002738  0.07589842  0.89428526    -0.61620
Mn2704     Mn  0.75055771  0.05228307  0.85554066     1.18440
C2705       C  0.79463638  0.07396719  0.92065798     0.96680
C2706       C  0.69945875  0.07403929  0.91487422     0.97340
N2707       N  0.78069857  0.46957952  0.80509659    -0.07810
N2708       N  0.80386137  0.47032170  0.79355237    -0.64120
N2709       N  0.71906732  0.45104775  0.82341825    -0.06620
N2710       N  0.69583482  0.43928175  0.82517464    -0.64800
N2711       N  0.71894556  0.47015402  0.80472701    -0.07320
N2712       N  0.69559691  0.47163955  0.79346678    -0.64390
N2713       N  0.78077238  0.45104951  0.82433669    -0.06220
N2714       N  0.80387217  0.43894158  0.82631954    -0.65080
Mn2715     Mn  0.74988151  0.00179410  0.80404376     1.10660
C2716       C  0.81799684  0.45078353  0.80666848     0.97900
C2717       C  0.68125753  0.45216803  0.80620739     0.97980
N2718       N  0.71967981  0.46603006  0.90576074    -0.07330
N2719       N  0.70772052  0.45308100  0.92573840    -0.62700
N2720       N  0.77857725  0.45006387  0.88623592    -0.06650
N2721       N  0.79256940  0.42790654  0.89123113    -0.59430
N2722       N  0.77770102  0.46652314  0.90742572    -0.07960
N2723       N  0.79062275  0.45478562  0.92766182    -0.62270
N2724       N  0.72016636  0.44942960  0.88463909    -0.06940
N2725       N  0.70811780  0.42602496  0.88941045    -0.59450
Mn2726     Mn  0.74849002  0.00112709  0.90826071     1.20190
Mn2727     Mn  0.74974961  0.45009232  0.85418194     1.10090
Cl2728     Cl  0.74959916  0.00123681  0.85608439    -0.87420
C2729       C  0.70047592  0.42831546  0.91482639     0.94910
C2730       C  0.80025426  0.43102344  0.91677146     0.94710
N2731       N  0.52912595  0.16551695  0.72240622    -0.07580
N2732       N  0.54225540  0.18639714  0.71159236    -0.59700
N2733       N  0.97012261  0.14468393  0.70516629    -0.07260
N2734       N  0.95586972  0.14885554  0.68374852    -0.61830
N2735       N  0.97041267  0.16668339  0.72087079    -0.06860
N2736       N  0.95683011  0.18698030  0.70894806    -0.59670
N2737       N  0.52939287  0.14412644  0.70583861    -0.06530
N2738       N  0.54353701  0.14952927  0.68467686    -0.62180
C2739       C  0.55179821  0.17566956  0.68838320     0.94600
C2740       C  0.94739795  0.17500050  0.68588708     0.94380
N2741       N  0.96682496  0.06245422  0.72382211    -0.07760
N2742       N  0.94271323  0.05313289  0.72655158    -0.60280
N2743       N  0.52902255  0.08058117  0.70423157    -0.05880
N2744       N  0.55157255  0.08168923  0.69157011    -0.61530
N2745       N  0.52905323  0.06051283  0.72188213    -0.07790
N2746       N  0.55177408  0.04760787  0.72157569    -0.60540
N2747       N  0.96735649  0.08184817  0.70533492    -0.05530
N2748       N  0.94380570  0.08558475  0.69483024    -0.61620
Mn2749     Mn  0.49908482  0.11242084  0.70479781     1.18440
C2750       C  0.92864851  0.06729457  0.70800118     0.96680
C2751       C  0.56566753  0.06074657  0.70238840     0.97340
N2752       N  0.97041747  0.16486376  0.78820079    -0.07810
N2753       N  0.95783396  0.18588079  0.79953527    -0.64120
N2754       N  0.52913797  0.14173174  0.80434589    -0.06620
N2755       N  0.54322890  0.14494177  0.82602057    -0.64800
N2756       N  0.52889865  0.16444714  0.78966774    -0.07320
N2757       N  0.54222073  0.18419235  0.80267352    -0.64390
N2758       N  0.96992634  0.14311877  0.80432685    -0.06220
N2759       N  0.95624895  0.14864346  0.82587325    -0.65080
Mn2760     Mn  0.99970774  0.16665973  0.75531721     1.10660
C2761       C  0.94845954  0.17508370  0.82269370     0.97900
C2762       C  0.55149688  0.17121339  0.82522894     0.97980
N2763       N  0.53111768  0.05964041  0.78332744    -0.07330
N2764       N  0.55469122  0.04848777  0.78147345    -0.62700
N2765       N  0.96918412  0.07844004  0.80313797    -0.06650
N2766       N  0.94695252  0.07844797  0.81637253    -0.59430
N2767       N  0.96925762  0.05880645  0.78495458    -0.07960
N2768       N  0.94698925  0.04499983  0.78549001    -0.62270
N2769       N  0.53087211  0.07851598  0.80236958    -0.06940
N2770       N  0.55411954  0.08024458  0.81402321    -0.59450
Mn2771     Mn  0.49907670  0.05886846  0.75334891     1.20190
Mn2772     Mn  0.49959068  0.11014927  0.80387176     1.10090
Cl2773     Cl  0.49933282  0.11228636  0.75438855    -0.87420
C2774       C  0.56875787  0.06111429  0.80111442     0.94910
C2775       C  0.93324547  0.05724581  0.80543121     0.94710
N2776       N  0.52988978  0.44346627  0.72185228    -0.07580
N2777       N  0.55319928  0.45522991  0.72261632    -0.59700
N2778       N  0.96733866  0.42296308  0.70455841    -0.07260
N2779       N  0.94370605  0.42041549  0.69386031    -0.61830
N2780       N  0.96787581  0.44352632  0.72182092    -0.06860
N2781       N  0.94466281  0.45534392  0.72305410    -0.59670
N2782       N  0.52963494  0.42322040  0.70420186    -0.06530
N2783       N  0.55272483  0.42089969  0.69263393    -0.62180
C2784       C  0.56711521  0.44138442  0.70390075     0.94600
C2785       C  0.92973156  0.44109951  0.70528618     0.94380
N2786       N  0.97059132  0.33773252  0.72164986    -0.07760
N2787       N  0.95976505  0.31589594  0.70959610    -0.60280
N2788       N  0.52839302  0.35942698  0.70514376    -0.05880
N2789       N  0.54220184  0.35369849  0.68380088    -0.61530
N2790       N  0.52890574  0.33856379  0.72228121    -0.07790
N2791       N  0.54249078  0.31767252  0.71177304    -0.60540
N2792       N  0.96909867  0.35930489  0.70542501    -0.05530
N2793       N  0.95622717  0.35298764  0.68343816    -0.61620
Mn2794     Mn  0.99855139  0.39171962  0.70440721     1.18440
C2795       C  0.95023784  0.32606211  0.68599078     0.96680
C2796       C  0.55112576  0.32787391  0.68793934     0.97340
N2797       N  0.96787177  0.44585048  0.78298033    -0.07810
N2798       N  0.94465178  0.45786903  0.78157251    -0.64120
N2799       N  0.52954405  0.42712606  0.80224518    -0.06620
N2800       N  0.55253178  0.42523147  0.81427729    -0.64800
N2801       N  0.53007088  0.44598842  0.78336944    -0.07320
N2802       N  0.55359785  0.45726677  0.78228025    -0.64390
N2803       N  0.96784486  0.42655031  0.80153416    -0.06220
N2804       N  0.94476842  0.42513949  0.81314333    -0.65080
Mn2805     Mn  0.99901483  0.44611563  0.75239718     1.10660
C2806       C  0.93059863  0.44515948  0.80088174     0.97900
C2807       C  0.56749131  0.44424413  0.80187724     0.97980
N2808       N  0.52854133  0.34116747  0.79016547    -0.07330
N2809       N  0.53863645  0.32096590  0.80525495    -0.62700
N2810       N  0.96981471  0.36202797  0.80468519    -0.06650
N2811       N  0.95635648  0.35654583  0.82642860    -0.59430
N2812       N  0.97022073  0.34023707  0.78860176    -0.07960
N2813       N  0.95767482  0.31930958  0.80006755    -0.62270
N2814       N  0.52999592  0.36463102  0.80373793    -0.06940
N2815       N  0.54288804  0.36130988  0.82623922    -0.59450
Mn2816     Mn  0.99965842  0.33831008  0.75573698     1.20190
Mn2817     Mn  0.99908507  0.39546488  0.80334162     1.10090
Cl2818     Cl  0.99900921  0.39234535  0.75394715    -0.87420
C2819       C  0.54760572  0.33412049  0.82780765     0.94910
C2820       C  0.94855686  0.33005671  0.82345219     0.94710
C2821       C  0.85878871  0.43177570  0.78669337    -0.10620
C2822       C  0.84678781  0.44908915  0.80555478     0.05580
C2823       C  0.86253167  0.46465741  0.82340539    -0.04380
C2824       C  0.88983233  0.46368969  0.82138803    -0.08830
C2825       C  0.90181634  0.44655973  0.80236014     0.04700
C2826       C  0.88609058  0.42994021  0.78545819    -0.03860
Br2827     Br  0.90117651  0.40313270  0.76168875    -0.03550
H2828       H  0.84692606  0.41924831  0.77328716     0.08610
H2829       H  0.90171185  0.47606428  0.83490779     0.06630
Br2830     Br  0.84754385  0.48726537  0.85104168    -0.03980
C2831       C  0.63934866  0.42975846  0.82008273    -0.10620
C2832       C  0.65218884  0.44974135  0.80442434     0.05580
C2833       C  0.63668914  0.46808411  0.78903326    -0.04380
C2834       C  0.60945453  0.46658470  0.78995821    -0.08830
C2835       C  0.59653446  0.44628240  0.80486864     0.04700
C2836       C  0.61197162  0.42771554  0.82036757    -0.03860
Br2837     Br  0.59773470  0.39905151  0.84261279    -0.03550
H2838       H  0.65065457  0.41552682  0.83229151     0.08610
H2839       H  0.59817763  0.48141991  0.77879333     0.06630
Br2840     Br  0.65091282  0.49553549  0.76580870    -0.03980
C2841       C  0.86287577  0.06442468  0.82962351    -0.10620
C2842       C  0.84939792  0.04823924  0.81053226     0.05580
C2843       C  0.86428742  0.03277627  0.79197359    -0.04380
C2844       C  0.89147453  0.03507599  0.79172866    -0.08830
C2845       C  0.90483312  0.05245350  0.80975263     0.04700
C2846       C  0.89020679  0.06638009  0.82964990    -0.03860
Br2847     Br  0.90591542  0.08760655  0.85811310    -0.03550
H2848       H  0.85213204  0.07568533  0.84478511     0.08610
H2849       H  0.90218408  0.02364228  0.77669941     0.06630
Br2850     Br  0.84932423  0.00871606  0.76559189    -0.03980
C2851       C  0.63778565  0.05355648  0.82982153    -0.10620
C2852       C  0.65307765  0.05720782  0.80678622     0.05580
C2853       C  0.64050918  0.06408163  0.78259532    -0.04380
C2854       C  0.61311718  0.06419041  0.78081516    -0.08830
C2855       C  0.59770889  0.05945780  0.80359084     0.04700
C2856       C  0.61037803  0.05526246  0.82848716    -0.03860
Br2857     Br  0.59111519  0.05136364  0.86109704    -0.03550
H2858       H  0.64717014  0.04919583  0.84889493     0.08610
H2859       H  0.60383524  0.06923638  0.76184882     0.06630
Br2860     Br  0.66036988  0.07705026  0.75291673    -0.03980
C2861       C  0.86072588  0.47077178  0.70942184    -0.10620
C2862       C  0.84517410  0.44761830  0.70383207     0.05580
C2863       C  0.85776334  0.42241859  0.69695082    -0.04380
C2864       C  0.88520685  0.42099009  0.69619632    -0.08830
C2865       C  0.90072115  0.44400381  0.70322971     0.04700
C2866       C  0.88795469  0.46890895  0.71009935    -0.03860
Br2867     Br  0.90648225  0.50131272  0.72052335    -0.03550
H2868       H  0.85163074  0.49071820  0.71279344     0.08610
H2869       H  0.89441465  0.40140824  0.69123686     0.06630
Br2870     Br  0.83880356  0.38889839  0.68952042    -0.03980
C2871       C  0.63509333  0.46342629  0.68220926    -0.10620
C2872       C  0.65094027  0.44902088  0.70063711     0.05580
C2873       C  0.63910817  0.43104076  0.71912355    -0.04380
C2874       C  0.61178955  0.42855480  0.71971565    -0.08830
C2875       C  0.59590326  0.44335115  0.70160255     0.04700
C2876       C  0.60780264  0.46062026  0.68250523    -0.03860
Br2877     Br  0.58739874  0.48168912  0.65736794    -0.03550
H2878       H  0.64398056  0.47710812  0.66767259     0.08610
H2879       H  0.60290016  0.41505220  0.73440593     0.06630
Br2880     Br  0.65963892  0.40892687  0.74324703    -0.03980
C2881       C  0.88430416  0.07303047  0.72814362    -0.10620
C2882       C  0.89971782  0.06638347  0.70576597     0.05580
C2883       C  0.88719545  0.05820625  0.68179632    -0.04380
C2884       C  0.86000186  0.05469348  0.68111367    -0.08830
C2885       C  0.84468828  0.06026650  0.70378660     0.04700
C2886       C  0.85692422  0.07099408  0.72687880    -0.03860
Br2887     Br  0.83661455  0.08634625  0.75536320    -0.03550
H2888       H  0.89353854  0.08053494  0.74637209     0.08610
H2889       H  0.85076385  0.04745109  0.66278412     0.06630
Br2890     Br  0.90657698  0.05035799  0.64991166    -0.03980
C2891       C  0.60801867  0.07626279  0.68243720    -0.10620
C2892       C  0.59415148  0.05661224  0.69758524     0.05580
C2893       C  0.60823161  0.03439027  0.70901047    -0.04380
C2894       C  0.63519662  0.03231121  0.70551694    -0.08830
C2895       C  0.64935320  0.05279550  0.69205107     0.04700
C2896       C  0.63528150  0.07471292  0.67973380    -0.03860
Br2897     Br  0.65170068  0.10385093  0.65979412    -0.03550
H2898       H  0.59776632  0.09355806  0.67332718     0.08610
H2899       H  0.64533511  0.01467253  0.71387744     0.06630
Br2900     Br  0.59227712  0.00663853  0.73055711    -0.03980
C2901       C  0.81193196  0.37762700  0.60125454    -0.10620
C2902       C  0.80882876  0.40062215  0.58385284     0.05580
C2903       C  0.81039750  0.39599321  0.55596985    -0.04380
C2904       C  0.81591000  0.36917981  0.54647225    -0.08830
C2905       C  0.81898022  0.34662513  0.56416029     0.04700
C2906       C  0.81643928  0.35096728  0.59164085    -0.03860
Br2907     Br  0.82104420  0.32134970  0.61693367    -0.03550
H2908       H  0.81080487  0.38013230  0.62279611     0.08610
H2909       H  0.81920295  0.36616444  0.52523861     0.06630
Br2910     Br  0.80626478  0.42494052  0.52990927    -0.03980
C2911       C  0.80671044  0.13701439  0.54772356    -0.10620
C2912       C  0.82013025  0.15546206  0.56486650     0.05580
C2913       C  0.82904123  0.14584790  0.58979405    -0.04380
C2914       C  0.82525659  0.11827407  0.59704883    -0.08830
C2915       C  0.81162840  0.09961073  0.58032242     0.04700
C2916       C  0.80193271  0.10936329  0.55545687    -0.03860
Br2917     Br  0.78129107  0.08661358  0.53192707    -0.03550
H2918       H  0.80076948  0.14384412  0.52790262     0.08610
H2919       H  0.83224733  0.11160099  0.61657531     0.06630
Br2920     Br  0.84706701  0.16985226  0.61448909    -0.03980
C2921       C  0.79691501  0.39300504  0.95034643    -0.10620
C2922       C  0.81154209  0.40709922  0.93085432     0.05580
C2923       C  0.83232259  0.39328214  0.91844106    -0.04380
C2924       C  0.83763803  0.36579153  0.92467751    -0.08830
C2925       C  0.82271746  0.35105005  0.94335312     0.04700
C2926       C  0.80221460  0.36498892  0.95649870    -0.03860
Br2927     Br  0.78114274  0.34686651  0.98281060    -0.03550
H2928       H  0.78034020  0.40317583  0.95949845     0.08610
H2929       H  0.85434835  0.35621571  0.91543383     0.06630
Br2930     Br  0.85397051  0.41112204  0.89225819    -0.03980
C2931       C  0.82698890  0.12796997  0.96394766    -0.10800
C2932       C  0.81639937  0.15239926  0.95250332     0.05580
C2933       C  0.79458442  0.15021936  0.93554479    -0.04380
C2934       C  0.78598004  0.12387401  0.92764569    -0.08830
C2935       C  0.79887710  0.09954107  0.93637224     0.04700
C2936       C  0.81844936  0.10165509  0.95596422    -0.03860
Br2937     Br  0.83628580  0.06964174  0.96971951    -0.03550
H2938       H  0.84322129  0.12925680  0.97794176     0.08610
H2939       H  0.77025118  0.12246562  0.91305749     0.06630
Br2940     Br  0.77797723  0.18215810  0.92014672    -0.03980
C2941       C  0.96133719  0.29622954  0.88956214    -0.10620
C2942       C  0.93825287  0.30218547  0.90335826     0.05580
C2943       C  0.91616910  0.31041386  0.88802821    -0.04380
C2944       C  0.91888303  0.31780211  0.86095807    -0.08830
C2945       C  0.94255969  0.31367561  0.84775127     0.04700
C2946       C  0.96296116  0.30049477  0.86179423    -0.03860
Br2947     Br  0.99331178  0.28839643  0.84349633    -0.03550
H2948       H  0.97829438  0.28875759  0.90039656     0.08610
H2949       H  0.90251126  0.32686901  0.85023823     0.06630
Br2950     Br  0.88147130  0.30858333  0.90165354    -0.03980
C2951       C  0.92063972  0.30011307  0.62168008    -0.10620
C2952       C  0.94276992  0.30086276  0.60512761     0.05580
C2953       C  0.96744081  0.30493349  0.61686447    -0.04380
C2954       C  0.96970223  0.30907015  0.64452502    -0.08830
C2955       C  0.94752523  0.30997701  0.66097604     0.04700
C2956       C  0.92288409  0.30481747  0.64942669    -0.03860
Br2957     Br  0.89182147  0.30626162  0.67054703    -0.03550
H2958       H  0.90148955  0.29681089  0.61289351     0.08610
H2959       H  0.98862350  0.31455304  0.65282143     0.06630
Br2960     Br  0.99780411  0.31023020  0.59531383    -0.03980
C2961       C  0.96099757  0.20675317  0.85935989    -0.10620
C2962       C  0.94132173  0.19119915  0.84663984     0.05580
C2963       C  0.91937445  0.18327072  0.86146357    -0.04380
C2964       C  0.91839975  0.18865132  0.88899793    -0.08830
C2965       C  0.93924784  0.20184438  0.90246078     0.04700
C2966       C  0.96020611  0.21202123  0.88703717    -0.03860
Br2967     Br  0.98979472  0.23021867  0.90269363    -0.03550
H2968       H  0.97834393  0.21237685  0.84831327     0.08610
H2969       H  0.90160425  0.18142595  0.90004283     0.06630
Br2970     Br  0.89118403  0.16309263  0.84509742    -0.03980
C2971       C  0.92337973  0.16948074  0.64372729    -0.10620
C2972       C  0.93618032  0.18801953  0.66121010     0.05580
C2973       C  0.94496544  0.21338780  0.65058814    -0.04380
C2974       C  0.94346087  0.21826645  0.62264655    -0.08830
C2975       C  0.93407723  0.19766146  0.60482229     0.04700
C2976       C  0.92329986  0.17329090  0.61600589    -0.03860
Br2977     Br  0.91153396  0.14199172  0.59510890    -0.03550
H2978       H  0.91620334  0.14988738  0.65140629     0.08610
H2979       H  0.95066675  0.23772787  0.61478363     0.06630
Br2980     Br  0.96041082  0.24093204  0.67317061    -0.03980
C2981       C  0.69564363  0.35362196  0.93670195    -0.10620
C2982       C  0.66892780  0.35166771  0.94195778     0.05580
C2983       C  0.65347188  0.37642795  0.94047976    -0.04380
C2984       C  0.66511615  0.40195352  0.93514082    -0.08830
C2985       C  0.69146139  0.40359156  0.92913754     0.04700
C2986       C  0.70670225  0.37906350  0.92938133    -0.03860
Br2987     Br  0.74213319  0.37864893  0.91743451    -0.03550
H2988       H  0.70778438  0.33520701  0.93733713     0.08610
H2989       H  0.65301582  0.42034773  0.93333240     0.06630
Br2990     Br  0.61594938  0.37820579  0.94310194    -0.03980
C2991       C  0.67191729  0.11505711  0.91156722    -0.10620
C2992       C  0.68903798  0.09934100  0.92764128     0.05580
C2993       C  0.70111354  0.11228904  0.94992490    -0.04380
C2994       C  0.69508509  0.14010457  0.95611440    -0.08830
C2995       C  0.67785672  0.15552140  0.93982062     0.04700
C2996       C  0.66675472  0.14282606  0.91716003    -0.03860
Br2997     Br  0.64448517  0.16305683  0.89302213    -0.03550
H2998       H  0.66341485  0.10598305  0.89360900     0.08610
H2999       H  0.70305545  0.14935538  0.97422076     0.06630
Br3000     Br  0.72667914  0.09360082  0.97161655    -0.03980
C3001       C  0.68413231  0.40227725  0.55185200    -0.10620
C3002       C  0.70278067  0.40220868  0.57233235     0.05580
C3003       C  0.71389249  0.37655040  0.58056149    -0.04380
C3004       C  0.70383880  0.35150200  0.57076906    -0.08830
C3005       C  0.68297997  0.35155488  0.55266241     0.04700
C3006       C  0.67427822  0.37723610  0.54183873    -0.03860
Br3007     Br  0.64872521  0.37978829  0.51357315    -0.03550
H3008       H  0.67606374  0.42175545  0.54476954     0.08610
H3009       H  0.71129479  0.33202472  0.57852600     0.06630
Br3010     Br  0.74250678  0.37410843  0.60555335    -0.03980
C3011       C  0.68845531  0.10153244  0.54776894    -0.10620
C3012       C  0.70697190  0.10076260  0.56835087     0.05580
C3013       C  0.71886746  0.12594754  0.57684925    -0.04380
C3014       C  0.70930480  0.15144455  0.56768211    -0.08830
C3015       C  0.68820893  0.15225465  0.54991350     0.04700
C3016       C  0.67909062  0.12702416  0.53836655    -0.03860
Br3017     Br  0.65283097  0.12569856  0.51067584    -0.03550
H3018       H  0.67977621  0.08242485  0.54048288     0.08610
H3019       H  0.71703110  0.17055481  0.57602436     0.06630
Br3020     Br  0.74738230  0.12714902  0.60205371    -0.03980
C3021       C  0.53423339  0.32195030  0.90161649    -0.10620
C3022       C  0.55284675  0.30215821  0.90829509     0.05580
C3023       C  0.56965944  0.29179946  0.88828264    -0.04380
C3024       C  0.56706339  0.30107016  0.86161436    -0.08830
C3025       C  0.54872883  0.32165789  0.85501731     0.04700
C3026       C  0.53235252  0.33225720  0.87567845    -0.03860
Br3027     Br  0.50648913  0.36094036  0.87092545    -0.03550
H3028       H  0.52178854  0.33047350  0.91709072     0.08610
H3029       H  0.58014356  0.29322800  0.84640608     0.06630
Br3030     Br  0.59743120  0.26654673  0.89692441    -0.03980
C3031       C  0.55100048  0.28368881  0.62584877    -0.10620
C3032       C  0.56646735  0.30045110  0.60911886     0.05580
C3033       C  0.58219996  0.32115971  0.62155348    -0.04380
C3034       C  0.57971782  0.32662501  0.64895666    -0.08830
C3035       C  0.56181983  0.31226717  0.66483623     0.04700
C3036       C  0.54852519  0.28952055  0.65341985    -0.03860
Br3037     Br  0.52473098  0.26790645  0.67402256    -0.03550
H3038       H  0.53957757  0.26701129  0.61722309     0.08610
H3039       H  0.59017896  0.34414368  0.65747414     0.06630
Br3040     Br  0.60633014  0.34481054  0.60301347    -0.03980
C3041       C  0.55288953  0.21338283  0.88943738    -0.10620
C3042       C  0.56167039  0.19268057  0.90733560     0.05580
C3043       C  0.57202004  0.16797088  0.89638079    -0.04380
C3044       C  0.57285266  0.16429459  0.86867874    -0.08830
C3045       C  0.56128332  0.18338591  0.85089396     0.04700
C3046       C  0.55233032  0.20874303  0.86145196    -0.03860
Br3047     Br  0.53840174  0.23683104  0.83859271    -0.03550
H3048       H  0.54610355  0.23306374  0.89722289     0.08610
H3049       H  0.57997315  0.14459095  0.86111632     0.06630
Br3050     Br  0.58214874  0.13630894  0.91758488    -0.03980
C3051       C  0.58324387  0.19103244  0.62327951    -0.10620
C3052       C  0.56127089  0.19939899  0.60823031     0.05580
C3053       C  0.53799574  0.20583311  0.62193864    -0.04380
C3054       C  0.53663657  0.20211085  0.64970088    -0.08830
C3055       C  0.55799942  0.19179778  0.66434125     0.04700
C3056       C  0.58166487  0.18709353  0.65104309    -0.03860
Br3057     Br  0.61150991  0.17277381  0.66984682    -0.03550
H3058       H  0.60150570  0.18656044  0.61334577     0.08610
H3059       H  0.51792464  0.20452732  0.65946258     0.06630
Br3060     Br  0.50634242  0.21631563  0.60387350    -0.03980
N3061       N  0.66012049  0.71679040  0.03159947    -0.07580
N3062       N  0.68166573  0.70298481  0.03843280    -0.59700
N3063       N  0.63588641  0.69850297  0.47501311    -0.07260
N3064       N  0.64044028  0.67566691  0.46155862    -0.61830
N3065       N  0.65543676  0.71616310  0.47277841    -0.06860
N3066       N  0.67436480  0.70447246  0.45853090    -0.59670
N3067       N  0.63966974  0.70048260  0.03526562    -0.06530
N3068       N  0.64680160  0.67670155  0.04570926    -0.62180
C3069       C  0.67280242  0.67802576  0.04719765     0.94600
C3070       C  0.66415373  0.67948990  0.45120928     0.94380
N3071       N  0.55798063  0.71617729  0.47527858    -0.07760
N3072       N  0.54823588  0.71706282  0.45049222    -0.60280
N3073       N  0.57940810  0.69968022  0.03985099    -0.05880
N3074       N  0.58263616  0.68937524  0.06419804    -0.61530
N3075       N  0.55956381  0.71683880  0.03927790    -0.07790
N3076       N  0.54888362  0.71849606  0.06321721    -0.60540
N3077       N  0.57675028  0.69767856  0.47654423    -0.05530
N3078       N  0.57988787  0.68560612  0.45311144    -0.61620
Mn3079     Mn  0.60739679  0.69882487  0.00703660     1.18440
C3080       C  0.56193923  0.69740724  0.43694840     0.96680
C3081       C  0.56324563  0.70112883  0.07859174     0.97340
N3082       N  0.65280922  0.78657489  0.47182495    -0.07810
N3083       N  0.67048498  0.80118427  0.45830020    -0.64120
N3084       N  0.63660433  0.80230507  0.03337963    -0.06620
N3085       N  0.64235491  0.82640120  0.04412258    -0.64800
N3086       N  0.65771505  0.78670908  0.03112460    -0.07320
N3087       N  0.67836579  0.80101076  0.03962533    -0.64390
N3088       N  0.63123065  0.80134708  0.47327747    -0.06220
N3089       N  0.63328440  0.82457542  0.46014913    -0.65080
Mn3090     Mn  0.65756561  0.75163251  0.50165836     1.10660
C3091       C  0.65749000  0.82484682  0.45081936     0.97900
C3092       C  0.66823735  0.82571723  0.04769116     0.97980
N3093       N  0.55893745  0.77941201  0.04037368    -0.07330
N3094       N  0.55129269  0.77720366  0.06571696    -0.62700
N3095       N  0.57320310  0.79863765  0.47555410    -0.06650
N3096       N  0.57489698  0.81021488  0.45170694    -0.59430
N3097       N  0.55533837  0.77921285  0.47556669    -0.07960
N3098       N  0.54441023  0.77716245  0.45147616    -0.62270
N3099       N  0.57697448  0.79860276  0.03870850    -0.06940
N3100       N  0.58164531  0.80982194  0.06234163    -0.59450
Mn3101     Mn  0.55634725  0.74790996  0.00750813     1.20190
Mn3102     Mn  0.60393660  0.80028811  0.50550224     1.10090
Cl3103     Cl  0.60694308  0.74959218  0.00548398    -0.87420
C3104       C  0.56561728  0.79652811  0.07924736     0.94910
C3105       C  0.55693806  0.79667062  0.43694441     0.94710
N3106       N  0.94049964  0.71938070  0.03646434    -0.07580
N3107       N  0.94892068  0.72105536  0.06171612    -0.59700
N3108       N  0.92276762  0.70173535  0.47125072    -0.07260
N3109       N  0.91988900  0.69118104  0.44699408    -0.61830
N3110       N  0.94167724  0.72002071  0.47173569    -0.06860
N3111       N  0.95193901  0.72223052  0.44754264    -0.59670
N3112       N  0.92197984  0.70067125  0.03464576    -0.06530
N3113       N  0.91770180  0.68931123  0.05820882    -0.62180
C3114       C  0.93467126  0.70179248  0.07505417     0.94600
C3115       C  0.93827221  0.70398190  0.43226840     0.94380
N3116       N  0.84218458  0.71732754  0.47296856    -0.07760
N3117       N  0.82148556  0.70345024  0.46387357    -0.60280
N3118       N  0.86274413  0.69938315  0.03176925    -0.05880
N3119       N  0.85800148  0.67645858  0.04490511    -0.61530
N3120       N  0.84244904  0.71625685  0.03215623    -0.07790
N3121       N  0.82295701  0.70404492  0.04509845    -0.60540
N3122       N  0.86293549  0.70103048  0.47165008    -0.05530
N3123       N  0.85696168  0.67712977  0.46068656    -0.61620
Mn3124     Mn  0.89325193  0.70052400  0.00219238     1.18440
C3125       C  0.83125499  0.67847220  0.45606109     0.96680
C3126       C  0.83348239  0.67949275  0.05332686     0.97340
N3127       N  0.94210862  0.78299817  0.47236988    -0.07810
N3128       N  0.95157318  0.78096711  0.44773979    -0.64120
N3129       N  0.92330811  0.80041315  0.03701088    -0.06620
N3130       N  0.92074382  0.81089527  0.06136215    -0.64800
N3131       N  0.94233356  0.78222073  0.03647723    -0.07320
N3132       N  0.95335074  0.78021659  0.06045608    -0.64390
N3133       N  0.92348189  0.80171011  0.47292729    -0.06220
N3134       N  0.91994751  0.81259599  0.44886393    -0.65080
Mn3135     Mn  0.94320853  0.75109537  0.00428894     1.10660
C3136       C  0.93749629  0.79953156  0.43320944     0.97900
C3137       C  0.93981210  0.79836530  0.07570975     0.97980
N3138       N  0.84319916  0.78582615  0.03373155    -0.07330
N3139       N  0.82328632  0.79801780  0.04594739    -0.62700
N3140       N  0.86406793  0.80381478  0.47470386    -0.06650
N3141       N  0.85986881  0.82718235  0.46213838    -0.59430
N3142       N  0.84313622  0.78783998  0.47427216    -0.07960
N3143       N  0.82379341  0.80134787  0.46188743    -0.62270
N3144       N  0.86365192  0.80250326  0.03447704    -0.06940
N3145       N  0.85836722  0.82539676  0.04755871    -0.59450
Mn3146     Mn  0.84170491  0.75187425  0.00320430     1.20190
Mn3147     Mn  0.89424105  0.80238577  0.00486716     1.10090
Cl3148     Cl  0.89246808  0.75149126  0.00353636    -0.87420
C3149       C  0.83347983  0.82240516  0.05481500     0.94910
C3150       C  0.83503747  0.82566924  0.45404462     0.94710
N3151       N  0.72507546  0.53632106  0.09719374    -0.07580
N3152       N  0.71787529  0.54995245  0.07516400    -0.59700
N3153       N  0.78133530  0.55282353  0.12291070    -0.07260
N3154       N  0.79401340  0.57590654  0.11871989    -0.61830
N3155       N  0.78238659  0.53628997  0.10183439    -0.06860
N3156       N  0.79494158  0.54932622  0.08220863    -0.59670
N3157       N  0.72261217  0.55292763  0.11814264    -0.06530
N3158       N  0.71273759  0.57691082  0.11098275    -0.62180
C3159       C  0.71018620  0.57523281  0.08435275     0.94600
C3160       C  0.80246400  0.57390529  0.09351841     0.94380
N3161       N  0.77932457  0.53578549  0.20295428    -0.07760
N3162       N  0.80246930  0.53616083  0.21514263    -0.60280
N3163       N  0.71752769  0.55275930  0.17934727    -0.05880
N3164       N  0.69415074  0.56317133  0.17428644    -0.61530
N3165       N  0.71658569  0.53479772  0.19907551    -0.07790
N3166       N  0.69227292  0.53266302  0.20762620    -0.60540
N3167       N  0.77902325  0.55402873  0.18346446    -0.05530
N3168       N  0.80161448  0.56702045  0.18191104    -0.61620
Mn3169     Mn  0.74995905  0.55319772  0.15149610     1.18440
C3170       C  0.81600513  0.55619241  0.20200530     0.96680
C3171       C  0.67845783  0.55067472  0.19214283     0.97340
N3172       N  0.78188280  0.96584158  0.10357027    -0.07810
N3173       N  0.79412904  0.95163201  0.08447192    -0.64120
N3174       N  0.72196246  0.95065253  0.12055415    -0.06620
N3175       N  0.71118705  0.92681251  0.11432267    -0.64800
N3176       N  0.72438107  0.96647839  0.09907134    -0.07320
N3177       N  0.71596019  0.95253091  0.07766640    -0.64390
N3178       N  0.78063210  0.95033630  0.12528551    -0.06220
N3179       N  0.79290288  0.92685336  0.12192753    -0.65080
Mn3180     Mn  0.75353978  0.50115193  0.09951830     1.10660
C3181       C  0.80118492  0.92734579  0.09659254     0.97900
C3182       C  0.70776483  0.92785521  0.08774552     0.97980
N3183       N  0.71675000  0.97161091  0.20160893    -0.07330
N3184       N  0.69329204  0.97224186  0.21266035    -0.62700
N3185       N  0.77852033  0.95169267  0.18584889    -0.06650
N3186       N  0.80111252  0.93864347  0.18441995    -0.59430
N3187       N  0.77936799  0.97138867  0.20402873    -0.07960
N3188       N  0.80299389  0.97222145  0.21507415    -0.62270
N3189       N  0.71719789  0.95292806  0.18244360    -0.06940
N3190       N  0.69431813  0.94047847  0.18008692    -0.59450
Mn3191     Mn  0.74814331  0.00352441  0.20361089     1.20190
Mn3192     Mn  0.74931576  0.95136303  0.15394299     1.10090
Cl3193     Cl  0.75023763  0.00228844  0.15189180    -0.87420
C3194       C  0.67966736  0.95231738  0.19937207     0.94910
C3195       C  0.81626742  0.95123602  0.20292067     0.94710
N3196       N  0.71904465  0.53425081  0.30563474    -0.07580
N3197       N  0.69546228  0.53406184  0.29450056    -0.59700
N3198       N  0.78189798  0.55082374  0.32618696    -0.07260
N3199       N  0.80578725  0.56051889  0.32991313    -0.61830
N3200       N  0.78146606  0.53272002  0.30652765    -0.06860
N3201       N  0.80515125  0.52987908  0.29659788    -0.59670
N3202       N  0.71980126  0.55259016  0.32508730    -0.06530
N3203       N  0.69688742  0.56489381  0.32779794    -0.62180
C3204       C  0.68191553  0.55356704  0.30834509     0.94600
C3205       C  0.82023316  0.54736998  0.31120697     0.94380
N3206       N  0.77753077  0.53575302  0.40883393    -0.07760
N3207       N  0.78664125  0.54904555  0.43033285    -0.60280
N3208       N  0.72058173  0.55295626  0.38552928    -0.05880
N3209       N  0.70783033  0.57603152  0.38968194    -0.61530
N3210       N  0.71981941  0.53657839  0.40668315    -0.07790
N3211       N  0.70722477  0.54963269  0.42633257    -0.60540
N3212       N  0.77915213  0.55221478  0.38775307    -0.05530
N3213       N  0.79002798  0.57589897  0.39428546    -0.61620
Mn3214     Mn  0.75055925  0.55228319  0.35554014     1.18440
C3215       C  0.79463648  0.57396780  0.42065827     0.96680
C3216       C  0.69945926  0.57403920  0.41487301     0.97340
N3217       N  0.78069898  0.96957957  0.30509655    -0.07810
N3218       N  0.80386177  0.97032166  0.29355230    -0.64120
N3219       N  0.71906778  0.95104779  0.32341811    -0.06620
N3220       N  0.69583530  0.93928177  0.32517442    -0.64800
N3221       N  0.71894604  0.97015409  0.30472690    -0.07320
N3222       N  0.69559745  0.97163963  0.29346661    -0.64390
N3223       N  0.78077274  0.95104954  0.32433663    -0.06220
N3224       N  0.80387248  0.93894149  0.32631944    -0.65080
Mn3225     Mn  0.74988554  0.50179407  0.30404344     1.10660
C3226       C  0.81799718  0.95078340  0.30666839     0.97900
C3227       C  0.68125807  0.95216808  0.30620715     0.97980
N3228       N  0.71968009  0.96603003  0.40576065    -0.07330
N3229       N  0.70772073  0.95308095  0.42573826    -0.62700
N3230       N  0.77857756  0.95006398  0.38623578    -0.06650
N3231       N  0.79256982  0.92790673  0.39123088    -0.59430
N3232       N  0.77770132  0.96652318  0.40742563    -0.07960
N3233       N  0.79062313  0.95478566  0.42766166    -0.62270
N3234       N  0.72016667  0.94942959  0.38463898    -0.06940
N3235       N  0.70811807  0.92602496  0.38941027    -0.59450
Mn3236     Mn  0.74849088  0.50112736  0.40826031     1.20190
Mn3237     Mn  0.74974996  0.95009236  0.35418184     1.10090
Cl3238     Cl  0.74960155  0.50123690  0.35608406    -0.87420
C3239       C  0.70047610  0.92831543  0.41482620     0.94910
C3240       C  0.80025473  0.93102359  0.41677119     0.94710
N3241       N  0.52912683  0.66551650  0.22240467    -0.07580
N3242       N  0.54225584  0.68639781  0.21159226    -0.59700
N3243       N  0.97012486  0.64468417  0.20516560    -0.07260
N3244       N  0.95587208  0.64885519  0.18374755    -0.61830
N3245       N  0.97041469  0.66668415  0.22086947    -0.06860
N3246       N  0.95683211  0.68698064  0.20894622    -0.59670
N3247       N  0.52939559  0.64412670  0.20583624    -0.06530
N3248       N  0.54354061  0.64953102  0.18467556    -0.62180
C3249       C  0.55180032  0.67567158  0.18838325     0.94600
C3250       C  0.94740019  0.67500025  0.18588552     0.94380
N3251       N  0.96683012  0.56245514  0.22382629    -0.07760
N3252       N  0.94271827  0.55313383  0.22655599    -0.60280
N3253       N  0.52902700  0.58058167  0.20422369    -0.05880
N3254       N  0.55157734  0.58169038  0.19156289    -0.61530
N3255       N  0.52905718  0.56051197  0.22187267    -0.07790
N3256       N  0.55177771  0.54760657  0.22156592    -0.60540
N3257       N  0.96736135  0.58184793  0.20533791    -0.05530
N3258       N  0.94381067  0.58558347  0.19483264    -0.61620
Mn3259     Mn  0.49908848  0.61242074  0.20479159     1.18440
C3260       C  0.92865345  0.56729412  0.20800446     0.96680
C3261       C  0.56567173  0.56074653  0.20238006     0.97340
N3262       N  0.97041928  0.66486779  0.28819917    -0.07810
N3263       N  0.95783489  0.68588475  0.29953285    -0.64120
N3264       N  0.52913689  0.64172682  0.30434355    -0.06620
N3265       N  0.54322621  0.64493684  0.32601939    -0.64800
N3266       N  0.52889736  0.66444292  0.28966634    -0.07320
N3267       N  0.54221764  0.68418834  0.30267379    -0.64390
N3268       N  0.96992751  0.64312303  0.30432546    -0.06220
N3269       N  0.95624887  0.64864765  0.32587098    -0.65080
Mn3270     Mn  0.99970994  0.66666281  0.25531534     1.10660
C3271       C  0.94845935  0.67508770  0.32269091     0.97900
C3272       C  0.55149300  0.67120903  0.32522933     0.97980
N3273       N  0.53112120  0.55963644  0.28331784    -0.07330
N3274       N  0.55469510  0.54848459  0.28146448    -0.62700
N3275       N  0.96918673  0.57844452  0.30314081    -0.06650
N3276       N  0.94695439  0.57845273  0.31637403    -0.59430
N3277       N  0.96926184  0.55880968  0.28495871    -0.07960
N3278       N  0.94699365  0.54500256  0.28549360    -0.62270
N3279       N  0.53087409  0.57851054  0.30236136    -0.06940
N3280       N  0.55412080  0.58023890  0.31401651    -0.59450
Mn3281     Mn  0.49908100  0.55886502  0.25333831     1.20190
Mn3282     Mn  0.49959118  0.61014218  0.30386527     1.10090
Cl3283     Cl  0.49933493  0.61228291  0.25438230    -0.87420
C3284       C  0.56876032  0.56111001  0.30110721     0.94910
C3285       C  0.93324843  0.55724947  0.30543328     0.94710
N3286       N  0.52989064  0.94346619  0.22185262    -0.07580
N3287       N  0.55320009  0.95522992  0.22261631    -0.59700
N3288       N  0.96733884  0.92296266  0.20455800    -0.07260
N3289       N  0.94370622  0.92041508  0.19385992    -0.61830
N3290       N  0.96787599  0.94352589  0.22182051    -0.06860
N3291       N  0.94466300  0.95534351  0.22305373    -0.59670
N3292       N  0.52963569  0.92322010  0.20420241    -0.06530
N3293       N  0.55272549  0.92089930  0.19263432    -0.62180
C3294       C  0.56711588  0.94138423  0.20390079     0.94600
C3295       C  0.92973175  0.94109912  0.20528582     0.94380
N3296       N  0.97059246  0.83773192  0.22164914    -0.07760
N3297       N  0.95976607  0.81589529  0.20959563    -0.60280
N3298       N  0.52839379  0.85942677  0.20514511    -0.05880
N3299       N  0.54220248  0.85369798  0.18380222    -0.61530
N3300       N  0.52890661  0.83856386  0.22228285    -0.07790
N3301       N  0.54249159  0.81767242  0.21177489    -0.60540
N3302       N  0.96909953  0.85930428  0.20542428    -0.05530
N3303       N  0.95622782  0.85298691  0.18343759    -0.61620
Mn3304     Mn  0.99855187  0.89171949  0.20440643     1.18440
C3305       C  0.95023857  0.82606136  0.18599043     0.96680
C3306       C  0.55112644  0.82787347  0.18794098     0.97340
N3307       N  0.96787202  0.94584977  0.28297983    -0.07810
N3308       N  0.94465197  0.95786819  0.28157218    -0.64120
N3309       N  0.52954468  0.92712723  0.30224588    -0.06620
N3310       N  0.55253238  0.92523269  0.31427804    -0.64800
N3311       N  0.53007164  0.94598927  0.28336986    -0.07320
N3312       N  0.55359865  0.95726746  0.28228050    -0.64390
N3313       N  0.96784531  0.92654946  0.30153351    -0.06220
N3314       N  0.94476891  0.92513839  0.31314276    -0.65080
Mn3315     Mn  0.99901501  0.94611533  0.25239665     1.10660
C3316       C  0.93059896  0.94515840  0.30088136     0.97900
C3317       C  0.56749200  0.94424505  0.30187770     0.97980
N3318       N  0.52854220  0.84116861  0.29016705    -0.07330
N3319       N  0.53863730  0.82096707  0.30525652    -0.62700
N3320       N  0.96981584  0.86202743  0.30468414    -0.06650
N3321       N  0.95635676  0.85654588  0.32642713    -0.59430
N3322       N  0.97022189  0.84023641  0.28860090    -0.07960
N3323       N  0.95767507  0.81930938  0.30006646    -0.62270
N3324       N  0.52999646  0.86463214  0.30373958    -0.06940
N3325       N  0.54288828  0.86131098  0.32624105    -0.59450
Mn3326     Mn  0.99965975  0.83830946  0.25573597     1.20190
Mn3327     Mn  0.99908598  0.89546445  0.30334063     1.10090
Cl3328     Cl  0.99901001  0.89234491  0.25394628    -0.87420
C3329       C  0.54760617  0.83412162  0.32780938     0.94910
C3330       C  0.94855655  0.83005697  0.32345075     0.94710
C3331       C  0.85878888  0.93177517  0.28669323    -0.10620
C3332       C  0.84678814  0.94908878  0.30555461     0.05580
C3333       C  0.86253216  0.96465687  0.32340521    -0.04380
C3334       C  0.88983282  0.96368883  0.32138787    -0.08830
C3335       C  0.90181667  0.94655871  0.30235999     0.04700
C3336       C  0.88609073  0.92993939  0.28545803    -0.03860
Br3337     Br  0.90117641  0.90313185  0.26168844    -0.03550
H3338       H  0.84692611  0.91924792  0.27328701     0.08610
H3339       H  0.90171246  0.97606333  0.33490758     0.06630
Br3340     Br  0.84754456  0.98726506  0.35104145    -0.03980
C3341       C  0.63934924  0.92975867  0.32008256    -0.10620
C3342       C  0.65218942  0.94974154  0.30442417     0.05580
C3343       C  0.63668977  0.96808451  0.28903327    -0.04380
C3344       C  0.60945520  0.96658535  0.28995848    -0.08830
C3345       C  0.59653511  0.94628309  0.30486893     0.04700
C3346       C  0.61197222  0.92771599  0.32036762    -0.03860
Br3347     Br  0.59773527  0.89905190  0.34261276    -0.03550
H3348       H  0.65065515  0.91552685  0.33229118     0.08610
H3349       H  0.59817825  0.98142081  0.27879369     0.06630
Br3350     Br  0.65091345  0.99553587  0.26580869    -0.03980
C3351       C  0.86287804  0.56442734  0.32962408    -0.10620
C3352       C  0.84940064  0.54824152  0.31053285     0.05580
C3353       C  0.86429063  0.53277863  0.29197447    -0.04380
C3354       C  0.89147779  0.53507890  0.29172978    -0.08830
C3355       C  0.90483591  0.55245673  0.30975385     0.04700
C3356       C  0.89020904  0.56638311  0.32965084    -0.03860
Br3357     Br  0.90591699  0.58760935  0.35811454    -0.03550
H3358       H  0.85213398  0.57568786  0.34478552     0.08610
H3359       H  0.90218777  0.52364531  0.27670082     0.06630
Br3360     Br  0.84932799  0.50871749  0.26559323    -0.03980
C3361       C  0.63778695  0.55355419  0.32981807    -0.10620
C3362       C  0.65307989  0.55720482  0.30678330     0.05580
C3363       C  0.64051237  0.56407771  0.28259168    -0.04380
C3364       C  0.61312048  0.56418603  0.28081023    -0.08830
C3365       C  0.59771124  0.55945403  0.30358530     0.04700
C3366       C  0.61037934  0.55525986  0.32848241    -0.03860
Br3367     Br  0.59111516  0.55136232  0.36109162    -0.03550
H3368       H  0.64717068  0.54919439  0.34889204     0.08610
H3369       H  0.60383934  0.56923135  0.26184331     0.06630
Br3370     Br  0.66037407  0.57704653  0.25291395    -0.03980
C3371       C  0.86072619  0.97077163  0.20942146    -0.10620
C3372       C  0.84517436  0.94761814  0.20383186     0.05580
C3373       C  0.85776352  0.92241836  0.19695069    -0.04380
C3374       C  0.88520701  0.92098979  0.19619615    -0.08830
C3375       C  0.90072137  0.94400351  0.20322936     0.04700
C3376       C  0.88795500  0.96890876  0.21009885    -0.03860
Br3377     Br  0.90648268  0.00131268  0.22052235    -0.03550
H3378       H  0.85163111  0.99071810  0.21279295     0.08610
H3379       H  0.89441476  0.90140789  0.19123678     0.06630
Br3380     Br  0.83880363  0.88889820  0.18952045    -0.03980
C3381       C  0.63509384  0.96342644  0.18220940    -0.10620
C3382       C  0.65094080  0.94902089  0.20063714     0.05580
C3383       C  0.63910876  0.93104050  0.21912337    -0.04380
C3384       C  0.61179017  0.92855442  0.21971540    -0.08830
C3385       C  0.59590387  0.94335094  0.20160246     0.04700
C3386       C  0.60780317  0.96062029  0.18250532    -0.03860
Br3387     Br  0.58739920  0.98168930  0.15736820    -0.03550
H3388       H  0.64398104  0.97710843  0.16767286     0.08610
H3389       H  0.60290080  0.91505164  0.23440555     0.06630
Br3390     Br  0.65963956  0.90892644  0.24324666    -0.03980
C3391       C  0.88430801  0.57303017  0.22814526    -0.10620
C3392       C  0.89972258  0.56638282  0.20576833     0.05580
C3393       C  0.88720082  0.55820640  0.18179797    -0.04380
C3394       C  0.86000710  0.55469447  0.18111405    -0.08830
C3395       C  0.84469267  0.56026765  0.20378631     0.04700
C3396       C  0.85692799  0.57099461  0.22687915    -0.03860
Br3397     Br  0.83661738  0.58634714  0.25536268    -0.03550
H3398       H  0.89354177  0.58053443  0.24637414     0.08610
H3399       H  0.85076968  0.54745253  0.16278403     0.06630
Br3400     Br  0.90658315  0.55035827  0.14991381    -0.03980
C3401       C  0.60802348  0.57626305  0.18243117    -0.10620
C3402       C  0.59415571  0.55661210  0.19757804     0.05580
C3403       C  0.60823534  0.53438985  0.20900361    -0.04380
C3404       C  0.63520048  0.53231111  0.20551146    -0.08830
C3405       C  0.64935755  0.55279578  0.19204682     0.04700
C3406       C  0.63528639  0.57471341  0.17972923    -0.03860
Br3407     Br  0.65170624  0.60385203  0.15979099    -0.03550
H3408       H  0.59777149  0.59355847  0.17332099     0.08610
H3409       H  0.64533866  0.51467228  0.21387198     0.06630
Br3410     Br  0.59228048  0.50663705  0.23054893    -0.03980
C3411       C  0.81193205  0.87762708  0.10125459    -0.10620
C3412       C  0.80882863  0.90062208  0.08385274     0.05580
C3413       C  0.81039685  0.89599287  0.05596977    -0.04380
C3414       C  0.81590900  0.86917934  0.04647230    -0.08830
C3415       C  0.81897935  0.84662478  0.06416047     0.04700
C3416       C  0.81643899  0.85096724  0.09164105    -0.03860
Br3417     Br  0.82104423  0.82134987  0.11693405    -0.03550
H3418       H  0.81080540  0.88013260  0.12279617     0.08610
H3419       H  0.81920168  0.86616378  0.02523864     0.06630
Br3420     Br  0.80626394  0.92493998  0.02990902    -0.03980
C3421       C  0.80671138  0.63701474  0.04772176    -0.10620
C3422       C  0.82013003  0.65546285  0.06486521     0.05580
C3423       C  0.82904064  0.64584910  0.08979297    -0.04380
C3424       C  0.82525734  0.61827500  0.09704726    -0.08830
C3425       C  0.81163026  0.59961115  0.08032039     0.04700
C3426       C  0.80193455  0.60936342  0.05545476    -0.03860
Br3427     Br  0.78129423  0.58661301  0.03192437    -0.03550
H3428       H  0.80077073  0.64384432  0.02790068     0.08610
H3429       H  0.83224808  0.61160213  0.11657381     0.06630
Br3430     Br  0.84706427  0.66985436  0.11448883    -0.03980
C3431       C  0.79691545  0.89300543  0.45034632    -0.10620
C3432       C  0.81154243  0.90709928  0.43085392     0.05580
C3433       C  0.83232244  0.89328178  0.41844022    -0.04380
C3434       C  0.83763737  0.86579101  0.42467642    -0.08830
C3435       C  0.82271694  0.85104991  0.44335239     0.04700
C3436       C  0.80221467  0.86498923  0.45649849    -0.03860
Br3437     Br  0.78114321  0.84686732  0.48281107    -0.03550
H3438       H  0.78034100  0.90317656  0.45949867     0.08610
H3439       H  0.85434730  0.85621480  0.41543235     0.06630
Br3440     Br  0.85397034  0.91112129  0.39225709    -0.03980
C3441       C  0.82698800  0.62797113  0.46394778    -0.10800
C3442       C  0.81639825  0.65240016  0.45250314     0.05580
C3443       C  0.79458338  0.65021989  0.43554459    -0.04380
C3444       C  0.78597926  0.62387438  0.42764576    -0.08830
C3445       C  0.79887662  0.59954171  0.43637252     0.04700
C3446       C  0.81844881  0.60165610  0.45596450    -0.03860
Br3447     Br  0.83628576  0.56964307  0.46971981    -0.03550
H3448       H  0.84322040  0.62925831  0.47794185     0.08610
H3449       H  0.77025047  0.62246566  0.41305749     0.06630
Br3450     Br  0.77797612  0.68215832  0.42014599    -0.03980
C3451       C  0.96133695  0.79623181  0.38956157    -0.10620
C3452       C  0.93825216  0.80218649  0.40335726     0.05580
C3453       C  0.91616829  0.81041389  0.38802683    -0.04380
C3454       C  0.91888228  0.81780193  0.36095656    -0.08830
C3455       C  0.94255929  0.81367625  0.34775012     0.04700
C3456       C  0.96296109  0.80049685  0.36179370    -0.03860
Br3457     Br  0.99331255  0.78840056  0.34349655    -0.03550
H3458       H  0.97829439  0.78876099  0.40039632     0.08610
H3459       H  0.90251031  0.82686799  0.35023637     0.06630
Br3460     Br  0.88147045  0.80858246  0.40165199    -0.03980
C3461       C  0.92063967  0.80011336  0.12167998    -0.10620
C3462       C  0.94276993  0.80086192  0.10512756     0.05580
C3463       C  0.96744104  0.80493124  0.11686446    -0.04380
C3464       C  0.96970253  0.80906809  0.14452499    -0.08830
C3465       C  0.94752551  0.80997609  0.16097590     0.04700
C3466       C  0.92288419  0.80481762  0.14942656    -0.03860
Br3467     Br  0.89182157  0.80626325  0.17054682    -0.03550
H3468       H  0.90148936  0.79681216  0.11289338     0.08610
H3469       H  0.98862400  0.81455010  0.15282145     0.06630
Br3470     Br  0.99780490  0.81022533  0.09531396    -0.03980
C3471       C  0.96099579  0.70675731  0.35935747    -0.10620
C3472       C  0.94132054  0.69120287  0.34663697     0.05580
C3473       C  0.91937371  0.68327283  0.36146071    -0.04380
C3474       C  0.91839895  0.68865243  0.38899530    -0.08830
C3475       C  0.93924654  0.70184604  0.40245844     0.04700
C3476       C  0.96020432  0.71202423  0.38703496    -0.03860
Br3477     Br  0.98979243  0.73022201  0.40269184    -0.03550
H3478       H  0.97834192  0.71238205  0.34831098     0.08610
H3479       H  0.90160385  0.68142585  0.40004011     0.06630
Br3480     Br  0.89118421  0.66309352  0.34509428    -0.03980
C3481       C  0.92338103  0.66948095  0.14372620    -0.10620
C3482       C  0.93618300  0.68801920  0.16120840     0.05580
C3483       C  0.94496954  0.71338668  0.15058589    -0.04380
C3484       C  0.94346486  0.71826496  0.12264431    -0.08830
C3485       C  0.93407893  0.69766068  0.10482058     0.04700
C3486       C  0.92330016  0.67329107  0.11600476    -0.03860
Br3487     Br  0.91153049  0.64199301  0.09510847    -0.03550
H3488       H  0.91620382  0.64988814  0.15140569     0.08610
H3489       H  0.95067199  0.73772569  0.11478100     0.06630
Br3490     Br  0.96041704  0.74093037  0.17316753    -0.03980
C3491       C  0.69564377  0.85362193  0.43670186    -0.10620
C3492       C  0.66892791  0.85166764  0.44195756     0.05580
C3493       C  0.65347195  0.87642782  0.44047930    -0.04380
C3494       C  0.66511619  0.90195340  0.43514034    -0.08830
C3495       C  0.69146149  0.90359151  0.42913729     0.04700
C3496       C  0.70670239  0.87906348  0.42938124    -0.03860
Br3497     Br  0.74213343  0.87864900  0.41743472    -0.03550
H3498       H  0.70778456  0.83520702  0.43733723     0.08610
H3499       H  0.65301583  0.92034757  0.43333176     0.06630
Br3500     Br  0.61594942  0.87820549  0.44310120    -0.03980
C3501       C  0.67191697  0.61505653  0.41156666    -0.10620
C3502       C  0.68903838  0.59934080  0.42764020     0.05580
C3503       C  0.70111424  0.61228907  0.44992353    -0.04380
C3504       C  0.69508556  0.64010453  0.45611316    -0.08830
C3505       C  0.67785640  0.65552100  0.43981993     0.04700
C3506       C  0.66675380  0.64282532  0.41715978    -0.03860
Br3507     Br  0.64448231  0.66305523  0.39302308    -0.03550
H3508       H  0.66341420  0.60598225  0.39360870     0.08610
H3509       H  0.70305633  0.64935552  0.47421924     0.06630
Br3510     Br  0.72668045  0.59360120  0.47161472    -0.03980
C3511       C  0.68413237  0.90227688  0.05185216    -0.10620
C3512       C  0.70278080  0.90220852  0.07233244     0.05580
C3513       C  0.71389272  0.87655031  0.08056167    -0.04380
C3514       C  0.70383908  0.85150182  0.07076942    -0.08830
C3515       C  0.68298017  0.85155450  0.05266286     0.04700
C3516       C  0.67427831  0.87723563  0.04183906    -0.03860
Br3517     Br  0.64872515  0.87978751  0.01357361    -0.03550
H3518       H  0.67606370  0.92175501  0.04476962     0.08610
H3519       H  0.71129514  0.83202461  0.07852646     0.06630
Br3520     Br  0.74250706  0.87410857  0.10555349    -0.03980
C3521       C  0.68845527  0.60153148  0.04776880    -0.10620
C3522       C  0.70697248  0.60076175  0.06835017     0.05580
C3523       C  0.71886812  0.62594680  0.07684816    -0.04380
C3524       C  0.70930504  0.65144374  0.06768130    -0.08830
C3525       C  0.68820872  0.65225372  0.04991327     0.04700
C3526       C  0.67909024  0.62702316  0.03836659    -0.03860
Br3527     Br  0.65283023  0.62569749  0.01067623    -0.03550
H3528       H  0.67977610  0.58242383  0.04048297     0.08610
H3529       H  0.71703149  0.67055406  0.07602328     0.06630
Br3530     Br  0.74738375  0.62714855  0.10205167    -0.03980
C3531       C  0.53423328  0.82195066  0.40161793    -0.10620
C3532       C  0.55284673  0.80215866  0.40829648     0.05580
C3533       C  0.56965947  0.79180001  0.38828403    -0.04380
C3534       C  0.56706355  0.80107093  0.36161583    -0.08830
C3535       C  0.54872907  0.82165876  0.35501890     0.04700
C3536       C  0.53235249  0.83225773  0.37567995    -0.03860
Br3537     Br  0.50648889  0.86094066  0.37092691    -0.03550
H3538       H  0.52178830  0.83047367  0.41709214     0.08610
H3539       H  0.58014379  0.79322890  0.34640755     0.06630
Br3540     Br  0.59743110  0.76654707  0.39692570    -0.03980
C3541       C  0.55100094  0.78368781  0.12585076    -0.10620
C3542       C  0.56646782  0.80044993  0.10912069     0.05580
C3543       C  0.58220054  0.82115856  0.12155518    -0.04380
C3544       C  0.57971849  0.82662404  0.14895833    -0.08830
C3545       C  0.56182044  0.81226644  0.16483802     0.04700
C3546       C  0.54852565  0.78951985  0.15342181    -0.03860
Br3547     Br  0.52473107  0.76790641  0.17402474    -0.03550
H3548       H  0.53957789  0.76701034  0.11722520     0.08610
H3549       H  0.59017972  0.84414272  0.15747568     0.06630
Br3550     Br  0.60633070  0.84480930  0.10301502    -0.03980
C3551       C  0.55288917  0.71338114  0.38943721    -0.10620
C3552       C  0.56166876  0.69267899  0.40733620     0.05580
C3553       C  0.57201599  0.66796773  0.39638225    -0.04380
C3554       C  0.57284674  0.66428953  0.36868039    -0.08830
C3555       C  0.56127880  0.68338114  0.35089495     0.04700
C3556       C  0.55232870  0.70873994  0.36145194    -0.03860
Br3557     Br  0.53840332  0.73682901  0.33859170    -0.03550
H3558       H  0.54610535  0.73306320  0.39722201     0.08610
H3559       H  0.57996559  0.64458488  0.36111879     0.06630
Br3560     Br  0.58214457  0.63630667  0.41758759    -0.03980
C3561       C  0.58324457  0.69103416  0.12327963    -0.10620
C3562       C  0.56127108  0.69939960  0.10823070     0.05580
C3563       C  0.53799614  0.70583397  0.12193930    -0.04380
C3564       C  0.53663778  0.70211301  0.14970173    -0.08830
C3565       C  0.55800111  0.69180075  0.16434192     0.04700
C3566       C  0.58166630  0.68709634  0.15104335    -0.03860
Br3567     Br  0.61151167  0.67277669  0.16984661    -0.03550
H3568       H  0.60150621  0.68656196  0.11334559     0.08610
H3569       H  0.51792599  0.70452928  0.15946375     0.06630
Br3570     Br  0.50634202  0.71631483  0.10387453    -0.03980
N3571       N  0.66012078  0.71679044  0.53159896    -0.07580
N3572       N  0.68166595  0.70298483  0.53843245    -0.59700
N3573       N  0.63588629  0.69850265  0.97501372    -0.07260
N3574       N  0.64044020  0.67566667  0.96155913    -0.61830
N3575       N  0.65543650  0.71616292  0.97277892    -0.06860
N3576       N  0.67436451  0.70447247  0.95853124    -0.59670
N3577       N  0.63966997  0.70048270  0.53526499    -0.06530
N3578       N  0.64680172  0.67670163  0.54570866    -0.62180
C3579       C  0.67280254  0.67802580  0.54719724     0.94600
C3580       C  0.66415354  0.67948986  0.95120962     0.94380
N3581       N  0.55798053  0.71617636  0.97527884    -0.07760
N3582       N  0.54823604  0.71706183  0.95049237    -0.60280
N3583       N  0.57940841  0.69968093  0.53985063    -0.05880
N3584       N  0.58263665  0.68937593  0.56419766    -0.61530
N3585       N  0.55956434  0.71683982  0.53927779    -0.07790
N3586       N  0.54888454  0.71849731  0.56321729    -0.60540
N3587       N  0.57675025  0.69767773  0.97654471    -0.05530
N3588       N  0.57988812  0.68560527  0.95311199    -0.61620
Mn3589     Mn  0.60739694  0.69882534  0.50703605     1.18440
C3590       C  0.56193962  0.69740628  0.93694875     0.96680
C3591       C  0.56324650  0.70112984  0.57859165     0.97340
N3592       N  0.65280849  0.78657463  0.97182527    -0.07810
N3593       N  0.67048422  0.80118424  0.95830071    -0.64120
N3594       N  0.63660490  0.80230489  0.53337966    -0.06620
N3595       N  0.64235546  0.82640088  0.54412286    -0.64800
N3596       N  0.65771565  0.78670900  0.53112430    -0.07320
N3597       N  0.67836641  0.80101070  0.53962491    -0.64390
N3598       N  0.63122973  0.80134654  0.97327756    -0.06220
N3599       N  0.63328334  0.82457487  0.96014920    -0.65080
Mn3600     Mn  0.65756514  0.75163240  0.00165879     1.10660
C3601       C  0.65748903  0.82484661  0.95081972     0.97900
C3602       C  0.66823793  0.82571701  0.54769109     0.97980
N3603       N  0.55893794  0.77941313  0.54037337    -0.07330
N3604       N  0.55129235  0.77720577  0.56571648    -0.62700
N3605       N  0.57320223  0.79863670  0.97555436    -0.06650
N3606       N  0.57489598  0.81021363  0.95170706    -0.59430
N3607       N  0.55533756  0.77921184  0.97556721    -0.07960
N3608       N  0.54440928  0.77716115  0.95147680    -0.62270
N3609       N  0.57697513  0.79860366  0.53870813    -0.06940
N3610       N  0.58164531  0.80982373  0.56234099    -0.59450
Mn3611     Mn  0.55634770  0.74791094  0.50750785     1.20190
Mn3612     Mn  0.60393581  0.80028761  0.00550242     1.10090
Cl3613     Cl  0.60694353  0.74959266  0.50548358    -0.87420
C3614       C  0.56561663  0.79653071  0.57924665     0.94910
C3615       C  0.55693699  0.79666915  0.93694480     0.94710
N3616       N  0.94049864  0.71938032  0.53646441    -0.07580
N3617       N  0.94891889  0.72105505  0.56171649    -0.59700
N3618       N  0.92276788  0.70173574  0.97125142    -0.07260
N3619       N  0.91988880  0.69118139  0.94699489    -0.61830
N3620       N  0.94167708  0.72002163  0.97173581    -0.06860
N3621       N  0.95193802  0.72223183  0.94754239    -0.59670
N3622       N  0.92197888  0.70067085  0.53464530    -0.06530
N3623       N  0.91770013  0.68931089  0.55820826    -0.62180
C3624       C  0.93466905  0.70179218  0.57505415     0.94600
C3625       C  0.93827116  0.70398283  0.93226861     0.94380
N3626       N  0.84218498  0.71732714  0.97296917    -0.07760
N3627       N  0.82148605  0.70344992  0.96387391    -0.60280
N3628       N  0.86274353  0.69938320  0.53176824    -0.05880
N3629       N  0.85800080  0.67645858  0.54490396    -0.61530
N3630       N  0.84244865  0.71625716  0.53215560    -0.07790
N3631       N  0.82295663  0.70404533  0.54509795    -0.60540
N3632       N  0.86293586  0.70103000  0.97165108    -0.05530
N3633       N  0.85696211  0.67712925  0.96068762    -0.61620
Mn3634     Mn  0.89325140  0.70052396  0.50219149     1.18440
C3635       C  0.83125549  0.67847180  0.95606172     0.96680
C3636       C  0.83348185  0.67949295  0.55332602     0.97340
N3637       N  0.94210826  0.78299931  0.97237107    -0.07810
N3638       N  0.95157353  0.78096928  0.94774127    -0.64120
N3639       N  0.92330845  0.80041307  0.53701001    -0.06620
N3640       N  0.92074375  0.81089499  0.56136134    -0.64800
N3641       N  0.94233370  0.78222042  0.53647664    -0.07320
N3642       N  0.95335038  0.78021599  0.56045572    -0.64390
N3643       N  0.92348128  0.80171093  0.97292863    -0.06220
N3644       N  0.91994723  0.81259759  0.94886559    -0.65080
Mn3645     Mn  0.94320847  0.75109471  0.50428857     1.10660
C3646       C  0.93749668  0.79953403  0.93321129     0.97900
C3647       C  0.93981161  0.79836470  0.57570927     0.97980
N3648       N  0.84319954  0.78582695  0.53373103    -0.07330
N3649       N  0.82328697  0.79801872  0.54594729    -0.62700
N3650       N  0.86406742  0.80381480  0.97470477    -0.06650
N3651       N  0.85986823  0.82718211  0.96213879    -0.59430
N3652       N  0.84313606  0.78783952  0.97427262    -0.07960
N3653       N  0.82379334  0.80134676  0.96188709    -0.62270
N3654       N  0.86365233  0.80250406  0.53447600    -0.06940
N3655       N  0.85836789  0.82539772  0.54755760    -0.59450
Mn3656     Mn  0.84170483  0.75187474  0.50320382     1.20190
Mn3657     Mn  0.89424159  0.80238572  0.50486608     1.10090
Cl3658     Cl  0.89246801  0.75149122  0.50353570    -0.87420
C3659       C  0.83348064  0.82240619  0.55481452     0.94910
C3660       C  0.83503714  0.82566828  0.95404425     0.94710
N3661       N  0.72507548  0.53632116  0.59719377    -0.07580
N3662       N  0.71787530  0.54995256  0.57516404    -0.59700
N3663       N  0.78133535  0.55282369  0.62291064    -0.07260
N3664       N  0.79401333  0.57590677  0.61871973    -0.61830
N3665       N  0.78238659  0.53629013  0.60183433    -0.06860
N3666       N  0.79494140  0.54932644  0.58220848    -0.59670
N3667       N  0.72261222  0.55292774  0.61814268    -0.06530
N3668       N  0.71273766  0.57691093  0.61098279    -0.62180
C3669       C  0.71018624  0.57523293  0.58435280     0.94600
C3670       C  0.80246378  0.57390556  0.59351819     0.94380
N3671       N  0.77932463  0.53578550  0.70295432    -0.07760
N3672       N  0.80246931  0.53616086  0.71514275    -0.60280
N3673       N  0.71752772  0.55275930  0.67934732    -0.05880
N3674       N  0.69415073  0.56317127  0.67428649    -0.61530
N3675       N  0.71658574  0.53479771  0.69907555    -0.07790
N3676       N  0.69227297  0.53266296  0.70762624    -0.60540
N3677       N  0.77902336  0.55402873  0.68346449    -0.05530
N3678       N  0.80161460  0.56702045  0.68191113    -0.61620
Mn3679     Mn  0.74995912  0.55319779  0.65149612     1.18440
C3680       C  0.81600519  0.55619242  0.70200546     0.96680
C3681       C  0.67845784  0.55067462  0.69214287     0.97340
N3682       N  0.78187877  0.96584069  0.60357264    -0.07810
N3683       N  0.79412649  0.95163192  0.58447473    -0.64120
N3684       N  0.72195672  0.95065332  0.62055471    -0.06620
N3685       N  0.71118162  0.92681336  0.61432249    -0.64800
N3686       N  0.72437717  0.96647898  0.59907197    -0.07320
N3687       N  0.71595791  0.95253140  0.57766647    -0.64390
N3688       N  0.78062605  0.95033435  0.62528706    -0.06220
N3689       N  0.79289666  0.92685126  0.62192900    -0.65080
Mn3690     Mn  0.75353980  0.50115203  0.59951829     1.10660
C3691       C  0.80118100  0.92734494  0.59659479     0.97900
C3692       C  0.70776158  0.92785590  0.58774506     0.97980
N3693       N  0.71674384  0.97161088  0.70161067    -0.07330
N3694       N  0.69328629  0.97224230  0.71266304    -0.62700
N3695       N  0.77851352  0.95169082  0.68585035    -0.06650
N3696       N  0.80110552  0.93864136  0.68442074    -0.59430
N3697       N  0.77936203  0.97138699  0.70403001    -0.07960
N3698       N  0.80298832  0.97221955  0.71507457    -0.62270
N3699       N  0.71719043  0.95292881  0.68244458    -0.06940
N3700       N  0.69430995  0.94048042  0.68008817    -0.59450
Mn3701     Mn  0.74813811  0.00352350  0.70361250     1.20190
Mn3702     Mn  0.74930909  0.95136245  0.65394419     1.10090
Cl3703     Cl  0.75023284  0.00228797  0.65189338    -0.87420
C3704       C  0.67966019  0.95231917  0.69937438     0.94910
C3705       C  0.81626120  0.95123385  0.70292078     0.94710
N3706       N  0.71904445  0.53425084  0.80563473    -0.07580
N3707       N  0.69546210  0.53406178  0.79450054    -0.59700
N3708       N  0.78189758  0.55082394  0.82618694    -0.07260
N3709       N  0.80578687  0.56051899  0.82991319    -0.61830
N3710       N  0.78146568  0.53272023  0.80652762    -0.06860
N3711       N  0.80515088  0.52987921  0.79659793    -0.59670
N3712       N  0.71980103  0.55259022  0.82508726    -0.06530
N3713       N  0.69688718  0.56489384  0.82779788    -0.62180
C3714       C  0.68191533  0.55356699  0.80834504     0.94600
C3715       C  0.82023278  0.54737004  0.81120708     0.94380
N3716       N  0.77753049  0.53575323  0.90883389    -0.07760
N3717       N  0.78664112  0.54904566  0.93033279    -0.60280
N3718       N  0.72058139  0.55295635  0.88552924    -0.05880
N3719       N  0.70782996  0.57603160  0.88968191    -0.61530
N3720       N  0.71981911  0.53657849  0.90668313    -0.07790
N3721       N  0.70722450  0.54963279  0.92633256    -0.60540
N3722       N  0.77915178  0.55221503  0.88775305    -0.05530
N3723       N  0.79002769  0.57589918  0.89428544    -0.61620
Mn3724     Mn  0.75055892  0.55228335  0.85554012     1.18440
C3725       C  0.79463634  0.57396792  0.92065822     0.96680
C3726       C  0.69945893  0.57403928  0.91487300     0.97340
N3727       N  0.78069430  0.96957859  0.80509574    -0.07810
N3728       N  0.80385707  0.97032076  0.79355133    -0.64120
N3729       N  0.71906241  0.95104838  0.82341943    -0.06620
N3730       N  0.69582957  0.93928327  0.82517725    -0.64800
N3731       N  0.71894014  0.97015489  0.80472838    -0.07320
N3732       N  0.69559065  0.97164147  0.79346984    -0.64390
N3733       N  0.78076829  0.95104853  0.82433578    -0.06220
N3734       N  0.80386815  0.93894062  0.82631843    -0.65080
Mn3735     Mn  0.74988534  0.50179420  0.80404346     1.10660
C3736       C  0.81799273  0.95078257  0.80666728     0.97900
C3737       C  0.68125130  0.95217029  0.80621123     0.97980
N3738       N  0.71967857  0.96603011  0.90576185    -0.07330
N3739       N  0.70771977  0.95308106  0.92573983    -0.62700
N3740       N  0.77857504  0.95006286  0.88623491    -0.06650
N3741       N  0.79256731  0.92790541  0.89122935    -0.59430
N3742       N  0.77769991  0.96652206  0.90742483    -0.07960
N3743       N  0.79062249  0.95478433  0.92766025    -0.62270
N3744       N  0.72016401  0.94942989  0.88464001    -0.06940
N3745       N  0.70811514  0.92602549  0.88941153    -0.59450
Mn3746     Mn  0.74849067  0.50112756  0.90826032     1.20190
Mn3747     Mn  0.74974622  0.95009204  0.85418190     1.10090
Cl3748     Cl  0.74960136  0.50123707  0.85608408    -0.87420
C3749       C  0.70047423  0.92831584  0.91482778     0.94910
C3750       C  0.80025340  0.93102212  0.91676933     0.94710
N3751       N  0.52912840  0.66551641  0.72240510    -0.07580
N3752       N  0.54225744  0.68639761  0.71159249    -0.59700
N3753       N  0.97012373  0.64468271  0.70516618    -0.07260
N3754       N  0.95587152  0.64885324  0.68374763    -0.61830
N3755       N  0.97041214  0.66668257  0.72087021    -0.06860
N3756       N  0.95682913  0.68697853  0.70894658    -0.59670
N3757       N  0.52939652  0.64412671  0.70583653    -0.06530
N3758       N  0.54354115  0.64953098  0.68467553    -0.62180
C3759       C  0.55180128  0.67567140  0.68838319     0.94600
C3760       C  0.94739846  0.67499789  0.68588544     0.94380
N3761       N  0.96683011  0.56245422  0.72382787    -0.07760
N3762       N  0.94271816  0.55313318  0.72655753    -0.60280
N3763       N  0.52902702  0.58058167  0.70422425    -0.05880
N3764       N  0.55157732  0.58169028  0.69156338    -0.61530
N3765       N  0.52905720  0.56051202  0.72187330    -0.07790
N3766       N  0.55177771  0.54760655  0.72156648    -0.60540
N3767       N  0.96736159  0.58184663  0.70533910    -0.05530
N3768       N  0.94381102  0.58558211  0.69483355    -0.61620
Mn3769     Mn  0.49908889  0.61242119  0.70479234     1.18440
C3770       C  0.92865357  0.56729317  0.70800558     0.96680
C3771       C  0.56567170  0.56074642  0.70238053     0.97340
N3772       N  0.97041558  0.66486641  0.78820013    -0.07810
N3773       N  0.95783070  0.68588327  0.79953338    -0.64120
N3774       N  0.52913820  0.64172634  0.80434413    -0.06620
N3775       N  0.54322769  0.64493603  0.82601989    -0.64800
N3776       N  0.52889918  0.66444240  0.78966686    -0.07320
N3777       N  0.54221997  0.68418749  0.80267421    -0.64390
N3778       N  0.96992454  0.64312203  0.80432695    -0.06220
N3779       N  0.95624587  0.64864680  0.82587241    -0.65080
Mn3780     Mn  0.99970659  0.66666206  0.75531692     1.10660
C3781       C  0.94845562  0.67508656  0.82269174     0.97900
C3782       C  0.55149510  0.67120799  0.82522973     0.97980
N3783       N  0.53112111  0.55963616  0.78331859    -0.07330
N3784       N  0.55469490  0.54848409  0.78146514    -0.62700
N3785       N  0.96918601  0.57844357  0.80314283    -0.06650
N3786       N  0.94695363  0.57845142  0.81637592    -0.59430
N3787       N  0.96926144  0.55880884  0.78496062    -0.07960
N3788       N  0.94699341  0.54500141  0.78549533    -0.62270
N3789       N  0.53087419  0.57851019  0.80236217    -0.06940
N3790       N  0.55412092  0.58023828  0.81401729    -0.59450
Mn3791     Mn  0.49908099  0.55886530  0.75333905     1.20190
Mn3792     Mn  0.49959187  0.61014238  0.80386596     1.10090
Cl3793     Cl  0.49933571  0.61228320  0.75438300    -0.87420
C3794       C  0.56876024  0.56110930  0.80110790     0.94910
C3795       C  0.93324799  0.55724805  0.80543502     0.94710
N3796       N  0.52988130  0.94346909  0.72186501    -0.07580
N3797       N  0.55319102  0.95523262  0.72263061    -0.59700
N3798       N  0.96733255  0.92296086  0.70455182    -0.07260
N3799       N  0.94369962  0.92041249  0.69385456    -0.61830
N3800       N  0.96786995  0.94352544  0.72181275    -0.06860
N3801       N  0.94465716  0.95534327  0.72304572    -0.59670
N3802       N  0.52962708  0.92322515  0.70421230    -0.06530
N3803       N  0.55271707  0.92090616  0.69264425    -0.62180
C3804       C  0.56710739  0.94138940  0.70391353     0.94600
C3805       C  0.92972549  0.94109759  0.70527933     0.94380
N3806       N  0.97058922  0.83773119  0.72164881    -0.07760
N3807       N  0.95976394  0.81589350  0.70959594    -0.60280
N3808       N  0.52838906  0.85943082  0.70514760    -0.05880
N3809       N  0.54219716  0.85370381  0.68380375    -0.61530
N3810       N  0.52890299  0.83856659  0.72228386    -0.07790
N3811       N  0.54248815  0.81767631  0.71177404    -0.60540
N3812       N  0.96909469  0.85930292  0.70542329    -0.05530
N3813       N  0.95622260  0.85298424  0.68343724    -0.61620
Mn3814     Mn  0.99854645  0.89171825  0.70440183     1.18440
C3815       C  0.95023514  0.82605839  0.68599072     0.96680
C3816       C  0.55112188  0.82787915  0.68794048     0.97340
N3817       N  0.96786705  0.94585288  0.78297208    -0.07810
N3818       N  0.94464620  0.95786962  0.78156463    -0.64120
N3819       N  0.52953650  0.92712416  0.80225572    -0.06620
N3820       N  0.55252538  0.92522927  0.81428563    -0.64800
N3821       N  0.53006103  0.94598853  0.78338189    -0.07320
N3822       N  0.55358771  0.95726787  0.78229177    -0.64390
N3823       N  0.96784231  0.92655421  0.80152744    -0.06220
N3824       N  0.94476656  0.92514272  0.81313802    -0.65080
Mn3825     Mn  0.99900903  0.94611799  0.75238740     1.10660
C3826       C  0.93059484  0.94516068  0.80087566     0.97900
C3827       C  0.56748344  0.94424381  0.80188628     0.97980
N3828       N  0.52853948  0.84116616  0.79016800    -0.07330
N3829       N  0.53863514  0.82096428  0.80525666    -0.62700
N3830       N  0.96981623  0.86203241  0.80468365    -0.06650
N3831       N  0.95635915  0.85655155  0.82642814    -0.59430
N3832       N  0.97022131  0.84024066  0.78860126    -0.07960
N3833       N  0.95767548  0.81931403  0.80006862    -0.62270
N3834       N  0.52999373  0.86462926  0.80374124    -0.06940
N3835       N  0.54288648  0.86130763  0.82624205    -0.59450
Mn3836     Mn  0.99965766  0.83831219  0.75573504     1.20190
Mn3837     Mn  0.99908456  0.89547100  0.80333532     1.10090
Cl3838     Cl  0.99900602  0.89234754  0.75394139    -0.87420
C3839       C  0.54760454  0.83411827  0.82780958     0.94910
C3840       C  0.94855857  0.83006258  0.82345317     0.94710
C3841       C  0.85878436  0.93177511  0.78669080    -0.10620
C3842       C  0.84678383  0.94908794  0.80555304     0.05580
C3843       C  0.86252825  0.96465571  0.82340359    -0.04380
C3844       C  0.88982889  0.96368850  0.82138509    -0.08830
C3845       C  0.90181248  0.94655957  0.80235601     0.04700
C3846       C  0.88608626  0.92994010  0.78545447    -0.03860
Br3847     Br  0.90117173  0.90313314  0.76168416    -0.03550
H3848       H  0.84692141  0.91924794  0.77328468     0.08610
H3849       H  0.90170874  0.97606295  0.83490464     0.06630
Br3850     Br  0.84754126  0.98726277  0.85104102    -0.03980
C3851       C  0.63934284  0.92975933  0.82008714    -0.10620
C3852       C  0.65218216  0.94974351  0.80442953     0.05580
C3853       C  0.63668126  0.96808659  0.78903999    -0.04380
C3854       C  0.60944645  0.96658617  0.78996570    -0.08830
C3855       C  0.59652721  0.94628269  0.80487562     0.04700
C3856       C  0.61196577  0.92771547  0.82037283    -0.03860
Br3857     Br  0.59773077  0.89904949  0.84261697    -0.03550
H3858       H  0.65064957  0.91552716  0.83229467     0.08610
H3859       H  0.59816849  0.98142184  0.77880183     0.06630
Br3860     Br  0.65090422  0.99553959  0.76581681    -0.03980
C3861       C  0.86287757  0.56442635  0.82962503    -0.10620
C3862       C  0.84940022  0.54824117  0.81053329     0.05580
C3863       C  0.86429020  0.53277835  0.79197485    -0.04380
C3864       C  0.89147739  0.53507815  0.79173060    -0.08830
C3865       C  0.90483547  0.55245538  0.80975521     0.04700
C3866       C  0.89020858  0.56638159  0.82965227    -0.03860
Br3867     Br  0.90591647  0.58760682  0.85811673    -0.03550
H3868       H  0.85213348  0.57568673  0.84478656     0.08610
H3869       H  0.90218742  0.52364471  0.77670157     0.06630
Br3870     Br  0.84932754  0.50871794  0.76559300    -0.03980
C3871       C  0.63778696  0.55355362  0.82981825    -0.10620
C3872       C  0.65307972  0.55720452  0.80678341     0.05580
C3873       C  0.64051205  0.56407741  0.78259187    -0.04380
C3874       C  0.61312017  0.56418554  0.78081059    -0.08830
C3875       C  0.59771111  0.55945330  0.80358575     0.04700
C3876       C  0.61037935  0.55525908  0.82848276    -0.03860
Br3877     Br  0.59111538  0.55136123  0.86109208    -0.03550
H3878       H  0.64717083  0.54919380  0.84889214     0.08610
H3879       H  0.60383889  0.56923092  0.76184377     0.06630
Br3880     Br  0.66037352  0.57704647  0.75291408    -0.03980
C3881       C  0.86072015  0.97076964  0.70941943    -0.10620
C3882       C  0.84516820  0.94761612  0.70383036     0.05580
C3883       C  0.85775714  0.92241660  0.69694787    -0.04380
C3884       C  0.88520055  0.92098827  0.69619154    -0.08830
C3885       C  0.90071512  0.94400201  0.70322409     0.04700
C3886       C  0.88794899  0.96890712  0.71009487    -0.03860
Br3887     Br  0.90647670  0.00131144  0.72051778    -0.03550
H3888       H  0.85162509  0.99071593  0.71279200     0.08610
H3889       H  0.89440814  0.90140652  0.69123132     0.06630
Br3890     Br  0.83879720  0.88889637  0.68951814    -0.03980
C3891       C  0.63508513  0.96342597  0.68221319    -0.10620
C3892       C  0.65093336  0.94902311  0.70064179     0.05580
C3893       C  0.63910207  0.93104708  0.71913255    -0.04380
C3894       C  0.61178327  0.92856289  0.71972814    -0.08830
C3895       C  0.59589570  0.94335668  0.70161416     0.04700
C3896       C  0.60779425  0.96062137  0.68251243    -0.03860
Br3897     Br  0.58738909  0.98168699  0.65737372    -0.03550
H3898       H  0.64397151  0.97710490  0.66767343     0.08610
H3899       H  0.60289479  0.91506304  0.73442135     0.06630
Br3900     Br  0.65963430  0.90893517  0.74325640    -0.03980
C3901       C  0.88430800  0.57302963  0.72814600    -0.10620
C3902       C  0.89972270  0.56638218  0.70576920     0.05580
C3903       C  0.88720104  0.55820611  0.68179866    -0.04380
C3904       C  0.86000730  0.55469447  0.68111448    -0.08830
C3905       C  0.84469273  0.56026766  0.70378664     0.04700
C3906       C  0.85692796  0.57099441  0.72687961    -0.03860
Br3907     Br  0.83661725  0.58634708  0.75536300    -0.03550
H3908       H  0.89354166  0.58053370  0.74637500     0.08610
H3909       H  0.85076996  0.54745272  0.66278434     0.06630
Br3910     Br  0.90658353  0.55035808  0.64991458    -0.03980
C3911       C  0.60802340  0.57626285  0.68243135    -0.10620
C3912       C  0.59415568  0.55661197  0.69757839     0.05580
C3913       C  0.60823538  0.53438977  0.70900395    -0.04380
C3914       C  0.63520050  0.53231099  0.70551164    -0.08830
C3915       C  0.64935753  0.55279562  0.69204689     0.04700
C3916       C  0.63528630  0.57471319  0.67972928    -0.03860
Br3917     Br  0.65170607  0.60385168  0.65979079    -0.03550
H3918       H  0.59777137  0.59355822  0.67332114     0.08610
H3919       H  0.64533872  0.51467219  0.71387215     0.06630
Br3920     Br  0.59228060  0.50663716  0.73054954    -0.03980
C3921       C  0.81193063  0.87762662  0.60125568    -0.10620
C3922       C  0.80882675  0.90062206  0.58385448     0.05580
C3923       C  0.81039630  0.89599386  0.55597141    -0.04380
C3924       C  0.81590980  0.86918088  0.54647324    -0.08830
C3925       C  0.81898032  0.84662579  0.56416074     0.04700
C3926       C  0.81643905  0.85096726  0.59164141    -0.03860
Br3927     Br  0.82104453  0.82134919  0.61693358    -0.03550
H3928       H  0.81080306  0.88013143  0.62279728     0.08610
H3929       H  0.81920297  0.86616613  0.52523955     0.06630
Br3930     Br  0.80626291  0.92494161  0.52991140    -0.03980
C3931       C  0.80671057  0.63701504  0.54772146    -0.10620
C3932       C  0.82012953  0.65546315  0.56486466     0.05580
C3933       C  0.82904058  0.64584933  0.58979225    -0.04380
C3934       C  0.82525722  0.61827527  0.59704668    -0.08830
C3935       C  0.81162986  0.59961145  0.58032005     0.04700
C3936       C  0.80193384  0.60936371  0.55545455    -0.03860
Br3937     Br  0.78129330  0.58661325  0.53192441    -0.03550
H3938       H  0.80076964  0.64384460  0.52790046     0.08610
H3939       H  0.83224826  0.61160238  0.61657312     0.06630
Br3940     Br  0.84706516  0.66985438  0.61448759    -0.03980
C3941       C  0.79691496  0.89300417  0.95034486    -0.10620
C3942       C  0.81154135  0.90709756  0.93085169     0.05580
C3943       C  0.83232092  0.89327962  0.91843756    -0.04380
C3944       C  0.83763619  0.86578899  0.92467441    -0.08830
C3945       C  0.82271628  0.85104844  0.94335124     0.04700
C3946       C  0.80221427  0.86498809  0.95649743    -0.03860
Br3947     Br  0.78114309  0.84686668  0.98281057    -0.03550
H3948       H  0.78034084  0.90317556  0.95949757     0.08610
H3949       H  0.85434586  0.85621237  0.91543013     0.06630
Br3950     Br  0.85396805  0.91111855  0.89225342    -0.03980
C3951       C  0.82698818  0.62797074  0.96394803    -0.10800
C3952       C  0.81639866  0.65239990  0.95250347     0.05580
C3953       C  0.79458383  0.65021992  0.93554482    -0.04380
C3954       C  0.78597954  0.62387454  0.92764583    -0.08830
C3955       C  0.79887669  0.59954173  0.93637252     0.04700
C3956       C  0.81844882  0.60165583  0.95596460    -0.03860
Br3957     Br  0.83628546  0.56964258  0.96971986    -0.03550
H3958       H  0.84322052  0.62925770  0.97794220     0.08610
H3959       H  0.77025078  0.62246603  0.91305751     0.06630
Br3960     Br  0.77797682  0.68215857  0.92014635    -0.03980
C3961       C  0.96134081  0.79624116  0.88956574    -0.10620
C3962       C  0.93825387  0.80219047  0.90335957     0.05580
C3963       C  0.91616964  0.81041451  0.88802797    -0.04380
C3964       C  0.91888412  0.81780321  0.86095788    -0.08830
C3965       C  0.94256289  0.81368255  0.84775329     0.04700
C3966       C  0.96296640  0.80050801  0.86179842    -0.03860
Br3967     Br  0.99332230  0.78842066  0.84350415    -0.03550
H3968       H  0.97829880  0.78877318  0.90040159     0.08610
H3969       H  0.90251128  0.82686600  0.85023652     0.06630
Br3970     Br  0.88147139  0.80857872  0.90165180    -0.03980
C3971       C  0.92063818  0.80011092  0.62167924    -0.10620
C3972       C  0.94276871  0.80086074  0.60512726     0.05580
C3973       C  0.96743943  0.80493060  0.61686478    -0.04380
C3974       C  0.96970038  0.80906618  0.64452555    -0.08830
C3975       C  0.94752307  0.80997285  0.66097618     0.04700
C3976       C  0.92288207  0.80481433  0.64942604    -0.03860
Br3977     Br  0.89181896  0.80625905  0.67054558    -0.03550
H3978       H  0.90148811  0.79680950  0.61289216     0.08610
H3979       H  0.98862152  0.81454878  0.65282245     0.06630
Br3980     Br  0.99780315  0.81022783  0.59531485    -0.03980
C3981       C  0.96099155  0.70675850  0.85935663    -0.10620
C3982       C  0.94131678  0.69120222  0.84663743     0.05580
C3983       C  0.91937093  0.68327136  0.86146221    -0.04380
C3984       C  0.91839700  0.68865157  0.88899667    -0.08830
C3985       C  0.93924439  0.70184683  0.90245863     0.04700
C3986       C  0.96020083  0.71202632  0.88703399    -0.03860
Br3987     Br  0.98978801  0.73022772  0.90268890    -0.03550
H3988       H  0.97833682  0.71238419  0.84830921     0.08610
H3989       H  0.90160274  0.68142415  0.90004233     0.06630
Br3990     Br  0.89118177  0.66309016  0.84509735    -0.03980
C3991       C  0.92338064  0.66947753  0.64372522    -0.10620
C3992       C  0.93618094  0.68801639  0.66120813     0.05580
C3993       C  0.94496518  0.71338518  0.65058650    -0.04380
C3994       C  0.94345996  0.71826443  0.62264506    -0.08830
C3995       C  0.93407620  0.69765975  0.60482054     0.04700
C3996       C  0.92329935  0.67328876  0.61600390    -0.03860
Br3997     Br  0.91153167  0.64199070  0.59510647    -0.03550
H3998       H  0.91620496  0.64988379  0.65140401     0.08610
H3999       H  0.95066542  0.73772614  0.61478239     0.06630
Br4000     Br  0.96041077  0.74092925  0.67316905    -0.03980
C4001       C  0.69564260  0.85362218  0.93670268    -0.10620
C4002       C  0.66892677  0.85166763  0.94195837     0.05580
C4003       C  0.65347065  0.87642772  0.94048051    -0.04380
C4004       C  0.66511475  0.90195347  0.93514201    -0.08830
C4005       C  0.69146002  0.90359186  0.92913896     0.04700
C4006       C  0.70670104  0.87906391  0.92938239    -0.03860
Br4007     Br  0.74213184  0.87864975  0.91743518    -0.03550
H4008       H  0.70778349  0.83520732  0.93733765     0.08610
H4009       H  0.65301426  0.92034758  0.93333369     0.06630
Br4010     Br  0.61594810  0.87820510  0.94310224    -0.03980
C4011       C  0.67191677  0.61505673  0.91156671    -0.10620
C4012       C  0.68903814  0.59934091  0.92764022     0.05580
C4013       C  0.70111402  0.61228908  0.94992360    -0.04380
C4014       C  0.69508539  0.64010453  0.95611330    -0.08830
C4015       C  0.67785626  0.65552109  0.93982011     0.04700
C4016       C  0.66675365  0.64282550  0.91715992    -0.03860
Br4017     Br  0.64448215  0.66305552  0.89302331    -0.03550
H4018       H  0.66341398  0.60598251  0.89360873     0.08610
H4019       H  0.70305615  0.64935544  0.97421942     0.06630
Br4020     Br  0.72668020  0.59360111  0.97161475    -0.03980
C4021       C  0.68413155  0.90227678  0.55185084    -0.10620
C4022       C  0.70277931  0.90220912  0.57233173     0.05580
C4023       C  0.71389173  0.87655137  0.58056155    -0.04380
C4024       C  0.70383903  0.85150248  0.57076927    -0.08830
C4025       C  0.68298054  0.85155443  0.55266220     0.04700
C4026       C  0.67427837  0.87723517  0.54183780    -0.03860
Br4027     Br  0.64872551  0.87978606  0.51357200    -0.03550
H4028       H  0.67606250  0.92175460  0.54476796     0.08610
H4029       H  0.71129525  0.83202558  0.57852685     0.06630
Br4030     Br  0.74250515  0.87411086  0.60555456    -0.03980
C4031       C  0.68845539  0.60153152  0.54776874    -0.10620
C4032       C  0.70697250  0.60076186  0.56835021     0.05580
C4033       C  0.71886808  0.62594695  0.57684821    -0.04380
C4034       C  0.70930503  0.65144385  0.56768123    -0.08830
C4035       C  0.68820880  0.65225376  0.54991308     0.04700
C4036       C  0.67909039  0.62702317  0.53836642    -0.03860
Br4037     Br  0.65283051  0.62569741  0.51067593    -0.03550
H4038       H  0.67977628  0.58242384  0.54048291     0.08610
H4039       H  0.71703143  0.67055419  0.57602319     0.06630
Br4040     Br  0.74738359  0.62714880  0.60205186    -0.03980
C4041       C  0.53423073  0.82194667  0.90161768    -0.10620
C4042       C  0.55284562  0.80215643  0.90829679     0.05580
C4043       C  0.56965921  0.79179857  0.88828472    -0.04380
C4044       C  0.56706298  0.80106883  0.86161636    -0.08830
C4045       C  0.54872708  0.82165501  0.85501886     0.04700
C4046       C  0.53234950  0.83225305  0.87567951    -0.03860
Br4047     Br  0.50648463  0.86093456  0.87092589    -0.03550
H4048       H  0.52178505  0.83046904  0.91709162     0.08610
H4049       H  0.58014404  0.79322769  0.84640841     0.06630
Br4050     Br  0.59743207  0.76654741  0.89692708    -0.03980
C4051       C  0.55099961  0.78369193  0.62585023    -0.10620
C4052       C  0.56646578  0.80045439  0.60911981     0.05580
C4053       C  0.58219649  0.82116510  0.62155372    -0.04380
C4054       C  0.57971283  0.82663228  0.64895641    -0.08830
C4055       C  0.56181587  0.81227357  0.66483644     0.04700
C4056       C  0.54852332  0.78952502  0.65342099    -0.03860
Br4057     Br  0.52473102  0.76790929  0.67402445    -0.03550
H4058       H  0.53957821  0.76701291  0.61722519     0.08610
H4059       H  0.59017256  0.84415224  0.65747321     0.06630
Br4060     Br  0.60632638  0.84481590  0.60301325    -0.03980
C4061       C  0.55289069  0.71338024  0.88943735    -0.10620
C4062       C  0.56166960  0.69267798  0.90733658     0.05580
C4063       C  0.57201682  0.66796657  0.89638292    -0.04380
C4064       C  0.57284811  0.66428826  0.86868110    -0.08830
C4065       C  0.56128082  0.68338002  0.85089539     0.04700
C4066       C  0.55233093  0.70873901  0.86145209    -0.03860
Br4067     Br  0.53840705  0.73682835  0.83859129    -0.03550
H4068       H  0.54610684  0.73306239  0.89722194     0.08610
H4069       H  0.57996683  0.64458348  0.86111970     0.06630
Br4070     Br  0.58214476  0.63630550  0.91758857    -0.03980
C4071       C  0.58324549  0.69103402  0.62327939    -0.10620
C4072       C  0.56127215  0.69940033  0.60823068     0.05580
C4073       C  0.53799747  0.70583516  0.62193957    -0.04380
C4074       C  0.53663914  0.70211382  0.64970198    -0.08830
C4075       C  0.55800226  0.69180065  0.66434189     0.04700
C4076       C  0.58166727  0.68709581  0.65104308    -0.03860
Br4077     Br  0.61151246  0.67277532  0.66984603    -0.03550
H4078       H  0.60150697  0.68656146  0.61334519     0.08610
H4079       H  0.51792748  0.70453056  0.65946415     0.06630
Br4080     Br  0.50634358  0.71631708  0.60387507    -0.03980
loop_ 
_geom_bond_atom_site_label_1 
_geom_bond_atom_site_label_2 
_geom_bond_distance 
_geom_bond_site_symmetry_2 
_ccdc_geom_bond_type 
N1            N2   1.331       .  A
N1            N7   1.324       .  A
N1         Mn540   2.251       .  S
N2            C9   1.360       .  A
N3            N5   1.320       .  A
N3            N4   1.309       .  A
N3         Mn529   2.171       .  S
N4           C10   1.336       .  A
N5            N6   1.330       .  A
N5          Mn30   2.235       .  S
N6           C10   1.361       .  A
N7            N8   1.310       .  A
N7          Mn19   2.165       .  S
N8            C9   1.335       .  A
C9          C465   1.476       .  S
C10         C445   1.466       .  S
N11          N17   1.312       .  A
N11          N12   1.330       .  A
N11        Mn551   2.218       .  S
N12          C20   1.360       .  A
N13          N14   1.322       .  A
N13          N15   1.310       .  A
N13         Mn19   2.184       .  S
N14          C21   1.353       .  A
N15          N16   1.319       .  A
N15         Mn41   2.187       .  S
N16          C21   1.350       .  A
N17          N18   1.315       .  A
N17        Mn529   2.178       .  S
N18          C20   1.345       .  A
Mn19        N513   2.171   1_554  S
Mn19        N527   2.179   1_554  S
Mn19        Cl43   2.447       .  S
C20         C492   1.494       .  S
C21         C502   1.485       .  S
N22          N23   1.335       .  A
N22          N28   1.317       .  A
N22         Mn30   2.260       .  S
N23          C31   1.370       .  A
N24          N26   1.322       .  A
N24          N25   1.310       .  A
N24        Mn552   2.170       .  S
N25          C32   1.337       .  A
N26          N27   1.329       .  A
N26        Mn540   2.237       .  S
N27          C32   1.359       .  A
N28          N29   1.302       .  A
N28         Mn42   2.138       .  S
N29          C31   1.328       .  A
Mn30        N511   2.251       .  S
Mn30        N536   2.237       .  S
Mn30       Cl553   2.604       .  S
C31         C432   1.488       .  S
C32         C455   1.476       .  S
N33          N34   1.330       .  A
N33          N39   1.311       .  A
N33         Mn41   2.235       .  S
N34          C44   1.361       .  A
N35          N36   1.318       .  A
N35          N37   1.310       .  A
N35         Mn42   2.164       .  S
N36          C45   1.343       .  A
N37          N38   1.325       .  A
N37        Mn551   2.195       .  S
N38          C45   1.353       .  A
N39          N40   1.316       .  A
N39        Mn552   2.166       .  S
N40          C44   1.345       .  A
Mn41        N521   2.218   1_554  S
Mn41        N547   2.195   1_554  S
Mn41        Cl43   2.596       .  S
Mn42        N534   2.170       .  S
Mn42        N549   2.166       .  S
Mn42       Cl553   2.447       .  S
Cl43       Mn540   2.604       .  S
Cl43       Mn552   2.447       .  S
C44         C482   1.502       .  S
C45         C472   1.467       .  S
N46          N47   1.331       .  A
N46          N52   1.312       .  A
N46         Mn75   2.223       .  S
N47          C54   1.359       .  A
N48          N50   1.310       .  A
N48          N49   1.319       .  A
N48        Mn574   2.169       .  S
N49          C55   1.349       .  A
N50          N51   1.324       .  A
N50        Mn585   2.207       .  S
N51          C55   1.354       .  A
N52          N53   1.317       .  A
N52         Mn64   2.180       .  S
N53          C54   1.346       .  A
C54         C425   1.499       .  S
C55         C415   1.491       .  S
N56          N62   1.323       .  A
N56          N57   1.331       .  A
N56        Mn596   2.244       .  S
N57          C65   1.360       .  A
N58          N59   1.309       .  A
N58          N60   1.319       .  A
N58         Mn64   2.158       .  S
N59          C66   1.335       .  A
N60          N61   1.331       .  A
N60         Mn86   2.244       .  S
N61          C66   1.362       .  A
N62          N63   1.309       .  A
N62        Mn574   2.168       .  S
N63          C65   1.337       .  A
Mn64        N558   2.169   1_554  S
Mn64        N572   2.168   1_554  S
Mn64        Cl88   2.456       .  S
C65         C382   1.479       .  S
C66         C362   1.466       .  S
N67          N68   1.327       .  A
N67          N73   1.312       .  A
N67        Mn585   2.215       .  S
N68          C76   1.356       .  A
N69          N71   1.310       .  A
N69          N70   1.322       .  A
N69         Mn87   2.182       .  S
N70          C77   1.349       .  A
N71          N72   1.322       .  A
N71         Mn75   2.195       .  S
N72          C77   1.352       .  A
N73          N74   1.322       .  A
N73        Mn597   2.195       .  S
N74          C76   1.350       .  A
Mn75        N560   2.207   1_554  S
Mn75        N577   2.215   1_554  S
Mn75        Cl88   2.600       .  S
C76         C392   1.495       .  S
C77         C402   1.478       .  S
N78          N79   1.328       .  A
N78          N84   1.321       .  A
N78         Mn86   2.233       .  S
N79          C89   1.358       .  A
N80          N81   1.306       .  A
N80          N82   1.321       .  A
N80        Mn597   2.150       .  S
N81          C90   1.334       .  A
N82          N83   1.333       .  A
N82        Mn596   2.258       .  S
N83          C90   1.365       .  A
N84          N85   1.309       .  A
N84         Mn87   2.161       .  S
N85          C89   1.336       .  A
Mn86        N566   2.244   1_554  S
Mn86        N592   2.258   1_554  S
Mn86        Cl88   2.601       .  S
Mn87        N583   2.195   1_554  S
Mn87        N590   2.150   1_554  S
Mn87        Cl88   2.454       .  S
C89         C355   1.460       .  S
C90         C375   1.474       .  S
N91          N92   1.330       .  A
N91          N97   1.321       .  A
N91        Mn120   2.237       .  S
N92          C99   1.359       .  A
N93          N95   1.319       .  A
N93          N94   1.306       .  A
N93        Mn109   2.156       .  S
N94         C100   1.335       .  A
N95          N96   1.333       .  A
N95        Mn120   2.250       .  S
N96         C100   1.365       .  A
N97          N98   1.310       .  A
N97        Mn109   2.167       .  S
N98          C99   1.336       .  A
C99         C462   1.475       .  S
C100        C365   1.482       .  S
N101        N107   1.311       .  A
N101        N102   1.329       .  A
N101      Mn1151   2.230       .  S
N102        C110   1.361       .  A
N103        N104   1.321       .  A
N103        N105   1.312       .  A
N103       Mn109   2.173       .  S
N104        C111   1.347       .  A
N105        N106   1.324       .  A
N105      Mn1151   2.219       .  S
N106        C111   1.358       .  A
N107        N108   1.319       .  A
N107       Mn109   2.174       .  S
N108        C110   1.345       .  A
Mn109     Cl1153   2.452       .  S
C110        C335   1.485       .  S
C111        C345   1.494       .  S
N112        N113   1.332       .  A
N112        N118   1.319       .  A
N112      Mn1140   2.244       .  S
N113        C121   1.365       .  A
N114        N116   1.323       .  A
N114        N115   1.311       .  A
N114       Mn132   2.169       .  S
N115        C122   1.337       .  A
N116        N117   1.330       .  A
N116      Mn1140   2.242       .  S
N117        C122   1.359       .  A
N118        N119   1.305       .  A
N118       Mn132   2.157       .  S
N119        C121   1.336       .  A
Mn120      N1132   2.244   1_545  S
Mn120      N1136   2.242   1_545  S
Mn120     Cl1153   2.619       .  S
C121        C352   1.488       .  S
C122        C452   1.475       .  S
N123        N124   1.326       .  A
N123        N129   1.312       .  A
N123       Mn131   2.227       .  S
N124        C134   1.356       .  A
N125        N126   1.319       .  A
N125        N127   1.312       .  A
N125       Mn132   2.176       .  S
N126        C135   1.346       .  A
N127        N128   1.327       .  A
N127       Mn131   2.225       .  S
N128        C135   1.362       .  A
N129        N130   1.322       .  A
N129       Mn132   2.183       .  S
N130        C134   1.350       .  A
Mn131      N1121   2.230       .  S
Mn131      N1125   2.219       .  S
Mn131      Cl133   2.583       .  S
Mn132      Cl133   2.456       .  S
Cl133     Mn1129   2.452       .  S
Cl133     Mn1140   2.619       .  S
C134        C322   1.482       .  S
C135        C312   1.491       .  S
N136        N137   1.326       .  A
N136        N142   1.311       .  A
N136       Mn165   2.223       .  S
N137        C144   1.358       .  A
N138        N140   1.311       .  A
N138        N139   1.322       .  A
N138       Mn154   2.181       .  S
N139        C145   1.351       .  A
N140        N141   1.321       .  A
N140       Mn165   2.203       .  S
N141        C145   1.352       .  A
N142        N143   1.322       .  A
N142       Mn154   2.181       .  S
N143        C144   1.347       .  A
C144        C302   1.489       .  S
C145        C292   1.496       .  S
N146        N152   1.321       .  A
N146        N147   1.330       .  A
N146       Mn176   2.236       .  S
N147        C155   1.359       .  A
N148        N149   1.306       .  A
N148        N150   1.319       .  A
N148       Mn154   2.152       .  S
N149        C156   1.334       .  A
N150        N151   1.333       .  A
N150       Mn176   2.253       .  S
N151        C156   1.366       .  A
N152        N153   1.310       .  A
N152       Mn154   2.166       .  S
N153        C155   1.338       .  A
Mn154      Cl178   2.460       .  S
C155        C385   1.474       .  S
C156        C442   1.475       .  S
N157        N158   1.323       .  A
N157        N163   1.312       .  A
N157      Mn1185   2.213       .  S
N158        C166   1.354       .  A
N159        N161   1.311       .  A
N159        N160   1.322       .  A
N159       Mn177   2.189       .  S
N160        C167   1.352       .  A
N161        N162   1.320       .  A
N161      Mn1185   2.200       .  S
N162        C167   1.354       .  A
N163        N164   1.322       .  A
N163       Mn177   2.186       .  S
N164        C166   1.350       .  A
Mn165      N1177   2.213   1_545  S
Mn165      N1181   2.200   1_545  S
Mn165      Cl178   2.596       .  S
C166        C272   1.479       .  S
C167        C282   1.496       .  S
N168        N169   1.330       .  A
N168        N174   1.322       .  A
N168      Mn1196   2.248       .  S
N169        C179   1.361       .  A
N170        N171   1.308       .  A
N170        N172   1.321       .  A
N170       Mn177   2.168       .  S
N171        C180   1.339       .  A
N172        N173   1.330       .  A
N172      Mn1196   2.240       .  S
N173        C180   1.360       .  A
N174        N175   1.309       .  A
N174       Mn177   2.154       .  S
N175        C179   1.334       .  A
Mn176      N1188   2.248   1_545  S
Mn176      N1192   2.240   1_545  S
Mn176      Cl178   2.603       .  S
Mn177     Cl1198   2.465       .  S
Cl178     Mn1197   2.465   1_545  S
C179        C435   1.466       .  S
C180        C372   1.467       .  S
N181        N182   1.328       .  A
N181        N187   1.320       .  A
N181      Mn2250   2.237   1_455  S
N182        C189   1.361       .  A
N183        N185   1.317       .  A
N183        N184   1.305       .  A
N183      Mn2239   2.148       .  S
N184        C190   1.336       .  A
N185        N186   1.337       .  A
N185       Mn210   2.273       .  S
N186        C190   1.371       .  A
N187        N188   1.311       .  A
N187       Mn199   2.179   1_455  S
N188        C189   1.341       .  A
C189        C505   1.467       .  S
C190        C422   1.493       .  S
N191        N197   1.314       .  A
N191        N192   1.323       .  A
N191      Mn2261   2.212       .  S
N192        C200   1.353       .  A
N193        N194   1.322       .  A
N193        N195   1.308       .  A
N193       Mn199   2.168   1_455  S
N194        C201   1.351       .  A
N195        N196   1.319       .  A
N195       Mn221   2.205   1_455  S
N196        C201   1.355       .  A
N197        N198   1.324       .  A
N197      Mn2239   2.195       .  S
N198        C200   1.350       .  A
Mn199      N2223   2.148       .  S
Mn199      N2237   2.195       .  S
Mn199      Cl223   2.473       .  S
C200        C332   1.486       .  S
C201        C342   1.494       .  S
N202        N203   1.327       .  A
N202        N208   1.322       .  A
N202       Mn210   2.233       .  S
N203        C211   1.358       .  A
N204        N206   1.317       .  A
N204        N205   1.305       .  A
N204       Mn222   2.147   1_455  S
N205        C212   1.336       .  A
N206        N207   1.336       .  A
N206      Mn2250   2.268   1_455  S
N207        C212   1.370       .  A
N208        N209   1.314       .  A
N208      Mn2262   2.198       .  S
N209        C211   1.344       .  A
Mn210      N2221   2.237       .  S
Mn210      N2246   2.268       .  S
Mn210     Cl2263   2.620       .  S
C211        C412   1.471       .  S
C212        C495   1.491       .  S
N213        N214   1.325       .  A
N213        N219   1.314       .  A
N213       Mn221   2.213   1_455  S
N214        C224   1.355       .  A
N215        N216   1.320       .  A
N215        N217   1.309       .  A
N215      Mn2262   2.182       .  S
N216        C225   1.352       .  A
N217        N218   1.322       .  A
N217      Mn2261   2.203       .  S
N218        C225   1.356       .  A
N219        N220   1.324       .  A
N219       Mn222   2.212   1_455  S
N220        C224   1.353       .  A
Mn221      N2231   2.212       .  S
Mn221      N2257   2.203       .  S
Mn221      Cl223   2.574       .  S
Mn222      N2248   2.198       .  S
Mn222      N2255   2.182       .  S
Mn222      Cl223   2.470       .  S
Cl223     Mn2250   2.620       .  S
C224        C305   1.490       .  S
C225        C295   1.491       .  S
N226        N227   1.323       .  A
N226        N232   1.313       .  A
N226      Mn2295   2.207   1_455  S
N227        C234   1.353       .  A
N228        N230   1.311       .  A
N228        N229   1.325       .  A
N228       Mn244   2.195       .  S
N229        C235   1.354       .  A
N230        N231   1.320       .  A
N230       Mn255   2.202       .  S
N231        C235   1.353       .  A
N232        N233   1.324       .  A
N232      Mn2284   2.201   1_455  S
N233        C234   1.351       .  A
C234        C325   1.483       .  S
C235        C315   1.495       .  S
N236        N242   1.320       .  A
N236        N237   1.330       .  A
N236       Mn266   2.252       .  S
N237        C245   1.363       .  A
N238        N239   1.311       .  A
N238        N240   1.320       .  A
N238      Mn2284   2.180   1_455  S
N239        C246   1.341       .  A
N240        N241   1.332       .  A
N240      Mn2306   2.251   1_455  S
N241        C246   1.364       .  A
N242        N243   1.311       .  A
N242       Mn244   2.173       .  S
N243        C245   1.340       .  A
Mn244      N2272   2.201       .  S
Mn244      N2278   2.180       .  S
Mn244      Cl268   2.471       .  S
C245        C405   1.473       .  S
C246        C485   1.483       .  S
N247        N248   1.324       .  A
N247        N253   1.313       .  A
N247       Mn255   2.215       .  S
N248        C256   1.354       .  A
N249        N251   1.310       .  A
N249        N250   1.321       .  A
N249      Mn2307   2.184   1_455  S
N250        C257   1.349       .  A
N251        N252   1.324       .  A
N251      Mn2295   2.209   1_455  S
N252        C257   1.359       .  A
N253        N254   1.322       .  A
N253       Mn267   2.192       .  S
N254        C256   1.351       .  A
Mn255      N2266   2.207       .  S
Mn255      N2291   2.209       .  S
Mn255      Cl268   2.591       .  S
C256        C275   1.478       .  S
C257        C285   1.498       .  S
N258        N259   1.333       .  A
N258        N264   1.318       .  A
N258      Mn2306   2.263   1_455  S
N259        C269   1.367       .  A
N260        N261   1.316       .  A
N260        N262   1.320       .  A
N260       Mn267   2.203       .  S
N261        C270   1.345       .  A
N262        N263   1.328       .  A
N262       Mn266   2.237       .  S
N263        C270   1.361       .  A
N264        N265   1.308       .  A
N264      Mn2307   2.170   1_455  S
N265        C269   1.334       .  A
Mn266      N2280   2.251       .  S
Mn266      N2298   2.263       .  S
Mn266      Cl268   2.605       .  S
Mn267      N2289   2.184       .  S
Mn267      N2304   2.170       .  S
Mn267      Cl268   2.468       .  S
C269        C475   1.485       .  S
C270        C395   1.481       .  S
C271        C272   1.401       .  A
C271        C276   1.403       .  A
C271        H278   1.083       .  S
C272        C273   1.412       .  A
C273        C274   1.404       .  A
C273       Br280   1.919       .  S
C274        C275   1.401       .  A
C274        H279   1.083       .  S
C275        C276   1.411       .  A
C276       Br277   1.917       .  S
C281        C282   1.407       .  A
C281        C286   1.406       .  A
C281        H288   1.082       .  S
C282        C283   1.412       .  A
C283        C284   1.398       .  A
C283       Br290   1.908       .  S
C284        C285   1.399       .  A
C284        H289   1.073       .  S
C285        C286   1.419       .  A
C286       Br287   1.920       .  S
C291        C292   1.407       .  A
C291        C296   1.403       .  A
C291        H298   1.083       .  S
C292        C293   1.414       .  A
C293        C294   1.397       .  A
C293       Br300   1.909       .  S
C294        C295   1.402       .  A
C294        H299   1.082       .  S
C295        C296   1.415       .  A
C296       Br297   1.920       .  S
C301        C302   1.406       .  A
C301        C306   1.408       .  A
C301        H308   1.083       .  S
C302        C303   1.403       .  A
C303        C304   1.406       .  A
C303       Br310   1.908       .  S
C304        C305   1.407       .  A
C304        H309   1.083       .  S
C305        C306   1.412       .  A
C306       Br307   1.918       .  S
C311        C312   1.398       .  A
C311        C316   1.398       .  A
C311        H318   1.081       .  S
C312        C313   1.417       .  A
C313        C314   1.408       .  A
C313       Br320   1.919       .  S
C314        C315   1.407       .  A
C314        H319   1.083       .  S
C315        C316   1.409       .  A
C316       Br317   1.897       .  S
C321        C322   1.406       .  A
C321        C326   1.405       .  A
C321        H328   1.084       .  S
C322        C323   1.407       .  A
C323        C324   1.405       .  A
C323       Br330   1.916       .  S
C324        C325   1.406       .  A
C324        H329   1.084       .  S
C325        C326   1.408       .  A
C326       Br327   1.918       .  S
C331        C332   1.408       .  A
C331        C336   1.407       .  A
C331        H338   1.083       .  S
C332        C333   1.408       .  A
C333        C334   1.404       .  A
C333       Br340   1.918       .  S
C334        C335   1.406       .  A
C334        H339   1.084       .  S
C335        C336   1.405       .  A
C336       Br337   1.914       .  S
C341        C342   1.408       .  A
C341        C346   1.406       .  A
C341        H348   1.083       .  S
C342        C343   1.409       .  A
C343        C344   1.397       .  A
C343       Br350   1.905       .  S
C344        C345   1.400       .  A
C344        H349   1.078       .  S
C345        C346   1.416       .  A
C346       Br347   1.920       .  S
C351        C352   1.416       .  A
C351        C356   1.390       .  A
C351        H358   1.083       .  S
C352        C353   1.411       .  A
C353        C354   1.404       .  A
C353       Br360   1.918       .  S
C354        C355   1.409       .  A
C354        H359   1.083       .  S
C355        C356   1.393       .  A
C356       Br357   1.919       .  S
C361        C362   1.408       .  A
C361        C366   1.409       .  A
C361        H368   1.084       .  S
C362        C363   1.401       .  A
C363        C364   1.391       .  A
C363       Br370   1.920       .  S
C364        C365   1.408       .  A
C364        H369   1.084       .  S
C365        C366   1.413       .  A
C366       Br367   1.917       .  S
C371        C372   1.407       .  A
C371        C376   1.410       .  A
C371        H378   1.083       .  S
C372        C373   1.402       .  A
C373        C374   1.387       .  A
C373       Br380   1.923       .  S
C374        C375   1.403       .  A
C374        H379   1.078       .  S
C375        C376   1.411       .  A
C376       Br377   1.917       .  S
C381        C382   1.415       .  A
C381        C386   1.398       .  A
C381        H388   1.084       .  S
C382        C383   1.401       .  A
C383        C384   1.399       .  A
C383       Br390   1.916       .  S
C384        C385   1.413       .  A
C384        H389   1.084       .  S
C385        C386   1.399       .  A
C386       Br387   1.917       .  S
C391        C392   1.402       .  A
C391        C396   1.403       .  A
C391        H398   1.081       .  S
C392        C393   1.417       .  A
C393        C394   1.405       .  A
C393       Br400   1.910       .  S
C394        C395   1.398       .  A
C394        H399   1.083       .  S
C395        C396   1.406       .  A
C396       Br397   1.899       .  S
C401        C402   1.408       .  A
C401        C406   1.406       .  A
C401        H408   1.083       .  S
C402        C403   1.403       .  A
C403        C404   1.397       .  A
C403       Br410   1.915       .  S
C404        C405   1.407       .  A
C404        H409   1.084       .  S
C405        C406   1.406       .  A
C406       Br407   1.916       .  S
C411        C412   1.404       .  A
C411        C416   1.404       .  A
C411        H418   1.084       .  S
C412        C413   1.404       .  A
C413        C414   1.398       .  A
C413       Br420   1.918       .  S
C414        C415   1.409       .  A
C414        H419   1.083       .  S
C415        C416   1.414       .  A
C416       Br417   1.913       .  S
C421        C422   1.406       .  A
C421        C426   1.395       .  A
C421        H428   1.085       .  S
C422        C423   1.408       .  A
C423        C424   1.415       .  A
C423       Br430   1.908       .  S
C424        C425   1.414       .  A
C424        H429   1.083       .  S
C425        C426   1.415       .  A
C426       Br427   1.926       .  S
C431        C432   1.399       .  A
C431        C436   1.401       .  A
C431        H438   1.083       .  S
C432        C433   1.433       .  A
C433        C434   1.394       .  A
C433       Br440   1.930       .  S
C434        C435   1.387       .  A
C434        H439   1.084       .  S
C435        C436   1.416       .  A
C436       Br437   1.915       .  S
C441        C442   1.406       .  A
C441        C446   1.391       .  A
C441        H448   1.085       .  S
C442        C443   1.412       .  A
C443        C444   1.409       .  A
C443       Br450   1.917       .  S
C444        C445   1.408       .  A
C444        H449   1.084       .  S
C445        C446   1.401       .  A
C446       Br447   1.919       .  S
C451        C452   1.393       .  A
C451        C456   1.398       .  A
C451        H458   1.084       .  S
C452        C453   1.420       .  A
C453        C454   1.398       .  A
C453       Br460   1.921       .  S
C454        C455   1.394       .  A
C454        H459   1.084       .  S
C455        C456   1.421       .  A
C456       Br457   1.921       .  S
C461        C462   1.393       .  A
C461        C466   1.398       .  A
C461        H468   1.084       .  S
C462        C463   1.421       .  A
C463        C464   1.398       .  A
C463       Br470   1.921       .  S
C464        C465   1.393       .  A
C464        H469   1.084       .  S
C465        C466   1.422       .  A
C466       Br467   1.922       .  S
C471        C472   1.387       .  A
C471        C476   1.389       .  A
C471        H478   1.084       .  S
C472        C473   1.413       .  A
C473        C474   1.409       .  A
C473       Br480   1.918       .  S
C474        C475   1.403       .  A
C474        H479   1.083       .  S
C475        C476   1.427       .  A
C476       Br477   1.927       .  S
C481        C482   1.410       .  A
C481        C486   1.409       .  A
C481        H488   1.081       .  S
C482        C483   1.422       .  A
C483        C484   1.398       .  A
C483       Br490   1.924       .  S
C484        C485   1.400       .  A
C484        H489   1.084       .  S
C485        C486   1.408       .  A
C486       Br487   1.910       .  S
C491        C492   1.411       .  A
C491        C496   1.413       .  A
C491        H498   1.082       .  S
C492        C493   1.413       .  A
C493        C494   1.393       .  A
C493       Br500   1.926       .  S
C494        C495   1.406       .  A
C494        H499   1.085       .  S
C495        C496   1.407       .  A
C496       Br497   1.906       .  S
C501        C502   1.407       .  A
C501        C506   1.401       .  A
C501        H508   1.083       .  S
C502        C503   1.413       .  A
C503        C504   1.399       .  A
C503       Br510   1.917       .  S
C504        C505   1.402       .  A
C504        H509   1.084       .  S
C505        C506   1.404       .  A
C506       Br507   1.916       .  S
N511        N512   1.331       .  A
N511        N517   1.324       .  A
N512        C519   1.360       .  A
N513        N515   1.320       .  A
N513        N514   1.309       .  A
N514        C520   1.336       .  A
N515        N516   1.330       .  A
N515       Mn540   2.235   1_556  S
N516        C520   1.361       .  A
N517        N518   1.310       .  A
N517       Mn529   2.165       .  S
N518        C519   1.335       .  A
C519        C975   1.476       .  S
C520        C955   1.467       .  S
N521        N527   1.312       .  A
N521        N522   1.330       .  A
N522        C530   1.360       .  A
N523        N524   1.322       .  A
N523        N525   1.310       .  A
N523       Mn529   2.184       .  S
N524        C531   1.353       .  A
N525        N526   1.319       .  A
N525       Mn551   2.187       .  S
N526        C531   1.350       .  A
N527        N528   1.315       .  A
N528        C530   1.345       .  A
Mn529      Cl553   2.447       .  S
C530       C1002   1.494       .  S
C531       C1012   1.485       .  S
N532        N533   1.335       .  A
N532        N538   1.317       .  A
N532       Mn540   2.260   1_556  S
N533        C541   1.370       .  A
N534        N536   1.322       .  A
N534        N535   1.310       .  A
N535        C542   1.337       .  A
N536        N537   1.329       .  A
N537        C542   1.359       .  A
N538        N539   1.302       .  A
N538       Mn552   2.139   1_556  S
N539        C541   1.328       .  A
C541        C942   1.488       .  S
C542        C965   1.476       .  S
N543        N544   1.330       .  A
N543        N549   1.311       .  A
N543       Mn551   2.235       .  S
N544        C554   1.361       .  A
N545        N546   1.318       .  A
N545        N547   1.309       .  A
N545       Mn552   2.164   1_556  S
N546        C555   1.343       .  A
N547        N548   1.325       .  A
N548        C555   1.353       .  A
N549        N550   1.316       .  A
N550        C554   1.345       .  A
Mn551      Cl553   2.596       .  S
C554        C992   1.502       .  S
C555        C982   1.467       .  S
N556        N557   1.331       .  A
N556        N562   1.312       .  A
N556       Mn585   2.223       .  S
N557        C564   1.359       .  A
N558        N560   1.310       .  A
N558        N559   1.319       .  A
N559        C565   1.349       .  A
N560        N561   1.324       .  A
N561        C565   1.354       .  A
N562        N563   1.317       .  A
N562       Mn574   2.180       .  S
N563        C564   1.346       .  A
C564        C935   1.499       .  S
C565        C925   1.491       .  S
N566        N572   1.323       .  A
N566        N567   1.331       .  A
N567        C575   1.360       .  A
N568        N569   1.309       .  A
N568        N570   1.319       .  A
N568       Mn574   2.158       .  S
N569        C576   1.335       .  A
N570        N571   1.331       .  A
N570       Mn596   2.244       .  S
N571        C576   1.362       .  A
N572        N573   1.309       .  A
N573        C575   1.337       .  A
Mn574      Cl598   2.456       .  S
C575        C892   1.479       .  S
C576        C872   1.466       .  S
N577        N578   1.327       .  A
N577        N583   1.312       .  A
N578        C586   1.356       .  A
N579        N581   1.310       .  A
N579        N580   1.322       .  A
N579       Mn597   2.182       .  S
N580        C587   1.349       .  A
N581        N582   1.322       .  A
N581       Mn585   2.195       .  S
N582        C587   1.352       .  A
N583        N584   1.322       .  A
N584        C586   1.350       .  A
Mn585      Cl598   2.600       .  S
C586        C902   1.495       .  S
C587        C912   1.478       .  S
N588        N589   1.328       .  A
N588        N594   1.321       .  A
N588       Mn596   2.233       .  S
N589        C599   1.358       .  A
N590        N591   1.306       .  A
N590        N592   1.321       .  A
N591        C600   1.334       .  A
N592        N593   1.333       .  A
N593        C600   1.365       .  A
N594        N595   1.309       .  A
N594       Mn597   2.161       .  S
N595        C599   1.336       .  A
Mn596      Cl598   2.601       .  S
Mn597      Cl598   2.454       .  S
C599        C865   1.460       .  S
C600        C885   1.474       .  S
N601        N602   1.331       .  A
N601        N607   1.321       .  A
N601       Mn630   2.237       .  S
N602        C609   1.359       .  A
N603        N605   1.319       .  A
N603        N604   1.306       .  A
N603       Mn619   2.156       .  S
N604        C610   1.335       .  A
N605        N606   1.333       .  A
N605       Mn630   2.250       .  S
N606        C610   1.365       .  A
N607        N608   1.310       .  A
N607       Mn619   2.167       .  S
N608        C609   1.336       .  A
C609        C972   1.476       .  S
C610        C875   1.482       .  S
N611        N617   1.311       .  A
N611        N612   1.329       .  A
N611      Mn1661   2.230       .  S
N612        C620   1.361       .  A
N613        N614   1.321       .  A
N613        N615   1.312       .  A
N613       Mn619   2.173       .  S
N614        C621   1.347       .  A
N615        N616   1.324       .  A
N615      Mn1661   2.219       .  S
N616        C621   1.358       .  A
N617        N618   1.319       .  A
N617       Mn619   2.174       .  S
N618        C620   1.345       .  A
Mn619     Cl1663   2.452       .  S
C620        C845   1.485       .  S
C621        C855   1.494       .  S
N622        N623   1.332       .  A
N622        N628   1.319       .  A
N622      Mn1650   2.244       .  S
N623        C631   1.365       .  A
N624        N626   1.323       .  A
N624        N625   1.311       .  A
N624       Mn642   2.169       .  S
N625        C632   1.337       .  A
N626        N627   1.330       .  A
N626      Mn1650   2.242       .  S
N627        C632   1.359       .  A
N628        N629   1.305       .  A
N628       Mn642   2.157       .  S
N629        C631   1.336       .  A
Mn630      N1642   2.244   1_545  S
Mn630      N1646   2.242   1_545  S
Mn630     Cl1663   2.619       .  S
C631        C862   1.488       .  S
C632        C962   1.475       .  S
N633        N634   1.326       .  A
N633        N639   1.312       .  A
N633       Mn641   2.227       .  S
N634        C644   1.356       .  A
N635        N636   1.319       .  A
N635        N637   1.312       .  A
N635       Mn642   2.176       .  S
N636        C645   1.346       .  A
N637        N638   1.327       .  A
N637       Mn641   2.225       .  S
N638        C645   1.362       .  A
N639        N640   1.322       .  A
N639       Mn642   2.183       .  S
N640        C644   1.350       .  A
Mn641      N1631   2.230       .  S
Mn641      N1635   2.219       .  S
Mn641      Cl643   2.583       .  S
Mn642      Cl643   2.456       .  S
Cl643     Mn1639   2.452       .  S
Cl643     Mn1650   2.619       .  S
C644        C832   1.482       .  S
C645        C822   1.491       .  S
N646        N647   1.326       .  A
N646        N652   1.312       .  A
N646       Mn675   2.225       .  S
N647        C654   1.358       .  A
N648        N650   1.312       .  A
N648        N649   1.322       .  A
N648       Mn664   2.183       .  S
N649        C655   1.351       .  A
N650        N651   1.321       .  A
N650       Mn675   2.203       .  S
N651        C655   1.352       .  A
N652        N653   1.322       .  A
N652       Mn664   2.181       .  S
N653        C654   1.347       .  A
C654        C812   1.489       .  S
C655        C802   1.496       .  S
N656        N662   1.321       .  A
N656        N657   1.330       .  A
N656       Mn686   2.235       .  S
N657        C665   1.359       .  A
N658        N659   1.306       .  A
N658        N660   1.319       .  A
N658       Mn664   2.150       .  S
N659        C666   1.334       .  A
N660        N661   1.334       .  A
N660       Mn686   2.253       .  S
N661        C666   1.366       .  A
N662        N663   1.310       .  A
N662       Mn664   2.166       .  S
N663        C665   1.338       .  A
Mn664      Cl688   2.457       .  S
C665        C895   1.474       .  S
C666        C952   1.476       .  S
N667        N668   1.323       .  A
N667        N673   1.312       .  A
N667      Mn1695   2.213       .  S
N668        C676   1.354       .  A
N669        N671   1.311       .  A
N669        N670   1.322       .  A
N669       Mn687   2.189       .  S
N670        C677   1.352       .  A
N671        N672   1.320       .  A
N671      Mn1695   2.200       .  S
N672        C677   1.354       .  A
N673        N674   1.322       .  A
N673       Mn687   2.186       .  S
N674        C676   1.350       .  A
Mn675      N1687   2.213   1_545  S
Mn675      N1691   2.202   1_545  S
Mn675      Cl688   2.585       .  S
C676        C782   1.479       .  S
C677        C792   1.496       .  S
N678        N679   1.330       .  A
N678        N684   1.322       .  A
N678      Mn1706   2.248       .  S
N679        C689   1.361       .  A
N680        N681   1.308       .  A
N680        N682   1.321       .  A
N680       Mn687   2.168       .  S
N681        C690   1.339       .  A
N682        N683   1.330       .  A
N682      Mn1706   2.240       .  S
N683        C690   1.360       .  A
N684        N685   1.309       .  A
N684       Mn687   2.154       .  S
N685        C689   1.334       .  A
Mn686      N1698   2.247   1_545  S
Mn686      N1702   2.238   1_545  S
Mn686      Cl688   2.614       .  S
Mn687     Cl1708   2.465       .  S
Cl688     Mn1707   2.466   1_545  S
C689        C945   1.466       .  S
C690        C882   1.467       .  S
N691        N692   1.328       .  A
N691        N697   1.320       .  A
N691      Mn2760   2.237   1_455  S
N692        C699   1.361       .  A
N693        N695   1.317       .  A
N693        N694   1.305       .  A
N693      Mn2749   2.148       .  S
N694        C700   1.336       .  A
N695        N696   1.337       .  A
N695       Mn720   2.273       .  S
N696        C700   1.371       .  A
N697        N698   1.311       .  A
N697       Mn709   2.179   1_455  S
N698        C699   1.341       .  A
C699       C1015   1.467       .  S
C700        C932   1.493       .  S
N701        N707   1.314       .  A
N701        N702   1.323       .  A
N701      Mn2771   2.212       .  S
N702        C710   1.353       .  A
N703        N704   1.322       .  A
N703        N705   1.308       .  A
N703       Mn709   2.168   1_455  S
N704        C711   1.351       .  A
N705        N706   1.319       .  A
N705       Mn731   2.205   1_455  S
N706        C711   1.355       .  A
N707        N708   1.324       .  A
N707      Mn2749   2.195       .  S
N708        C710   1.350       .  A
Mn709      N2733   2.148       .  S
Mn709      N2747   2.195       .  S
Mn709      Cl733   2.473       .  S
C710        C842   1.486       .  S
C711        C852   1.494       .  S
N712        N713   1.327       .  A
N712        N718   1.322       .  A
N712       Mn720   2.233       .  S
N713        C721   1.358       .  A
N714        N716   1.317       .  A
N714        N715   1.305       .  A
N714       Mn732   2.147   1_455  S
N715        C722   1.336       .  A
N716        N717   1.336       .  A
N716      Mn2760   2.268   1_455  S
N717        C722   1.370       .  A
N718        N719   1.314       .  A
N718      Mn2772   2.198       .  S
N719        C721   1.344       .  A
Mn720      N2731   2.237       .  S
Mn720      N2756   2.268       .  S
Mn720     Cl2773   2.620       .  S
C721        C922   1.471       .  S
C722       C1005   1.491       .  S
N723        N724   1.325       .  A
N723        N729   1.314       .  A
N723       Mn731   2.212   1_455  S
N724        C734   1.355       .  A
N725        N726   1.320       .  A
N725        N727   1.309       .  A
N725      Mn2772   2.182       .  S
N726        C735   1.352       .  A
N727        N728   1.322       .  A
N727      Mn2771   2.204       .  S
N728        C735   1.356       .  A
N729        N730   1.324       .  A
N729       Mn732   2.212   1_455  S
N730        C734   1.353       .  A
Mn731      N2741   2.211       .  S
Mn731      N2767   2.203       .  S
Mn731      Cl733   2.574       .  S
Mn732      N2758   2.198       .  S
Mn732      N2765   2.182       .  S
Mn732      Cl733   2.470       .  S
Cl733     Mn2760   2.620       .  S
C734        C815   1.489       .  S
C735        C805   1.491       .  S
N736        N737   1.323       .  A
N736        N742   1.313       .  A
N736      Mn2805   2.207   1_455  S
N737        C744   1.353       .  A
N738        N740   1.311       .  A
N738        N739   1.325       .  A
N738       Mn754   2.195       .  S
N739        C745   1.354       .  A
N740        N741   1.320       .  A
N740       Mn765   2.202       .  S
N741        C745   1.353       .  A
N742        N743   1.324       .  A
N742      Mn2794   2.201   1_455  S
N743        C744   1.351       .  A
C744        C835   1.483       .  S
C745        C825   1.495       .  S
N746        N752   1.320       .  A
N746        N747   1.330       .  A
N746       Mn776   2.252       .  S
N747        C755   1.363       .  A
N748        N749   1.311       .  A
N748        N750   1.320       .  A
N748      Mn2794   2.180   1_455  S
N749        C756   1.341       .  A
N750        N751   1.332       .  A
N750      Mn2816   2.251   1_455  S
N751        C756   1.364       .  A
N752        N753   1.311       .  A
N752       Mn754   2.173       .  S
N753        C755   1.340       .  A
Mn754      N2782   2.201       .  S
Mn754      N2788   2.180       .  S
Mn754      Cl778   2.471       .  S
C755        C915   1.473       .  S
C756        C995   1.483       .  S
N757        N758   1.324       .  A
N757        N763   1.313       .  A
N757       Mn765   2.215       .  S
N758        C766   1.354       .  A
N759        N761   1.310       .  A
N759        N760   1.321       .  A
N759      Mn2817   2.184   1_455  S
N760        C767   1.349       .  A
N761        N762   1.324       .  A
N761      Mn2805   2.209   1_455  S
N762        C767   1.359       .  A
N763        N764   1.322       .  A
N763       Mn777   2.192       .  S
N764        C766   1.351       .  A
Mn765      N2776   2.207       .  S
Mn765      N2801   2.209       .  S
Mn765      Cl778   2.591       .  S
C766        C785   1.478       .  S
C767        C795   1.498       .  S
N768        N769   1.333       .  A
N768        N774   1.318       .  A
N768      Mn2816   2.263   1_455  S
N769        C779   1.367       .  A
N770        N771   1.316       .  A
N770        N772   1.320       .  A
N770       Mn777   2.203       .  S
N771        C780   1.345       .  A
N772        N773   1.328       .  A
N772       Mn776   2.237       .  S
N773        C780   1.361       .  A
N774        N775   1.308       .  A
N774      Mn2817   2.170   1_455  S
N775        C779   1.334       .  A
Mn776      N2790   2.251       .  S
Mn776      N2808   2.263       .  S
Mn776      Cl778   2.605       .  S
Mn777      N2799   2.184       .  S
Mn777      N2814   2.170       .  S
Mn777      Cl778   2.468       .  S
C779        C985   1.485       .  S
C780        C905   1.481       .  S
C781        C782   1.401       .  A
C781        C786   1.403       .  A
C781        H788   1.083       .  S
C782        C783   1.412       .  A
C783        C784   1.404       .  A
C783       Br790   1.919       .  S
C784        C785   1.401       .  A
C784        H789   1.083       .  S
C785        C786   1.411       .  A
C786       Br787   1.917       .  S
C791        C792   1.407       .  A
C791        C796   1.406       .  A
C791        H798   1.082       .  S
C792        C793   1.412       .  A
C793        C794   1.398       .  A
C793       Br800   1.908       .  S
C794        C795   1.399       .  A
C794        H799   1.073       .  S
C795        C796   1.419       .  A
C796       Br797   1.920       .  S
C801        C802   1.407       .  A
C801        C806   1.404       .  A
C801        H808   1.083       .  S
C802        C803   1.414       .  A
C803        C804   1.397       .  A
C803       Br810   1.909       .  S
C804        C805   1.402       .  A
C804        H809   1.082       .  S
C805        C806   1.416       .  A
C806       Br807   1.920       .  S
C811        C812   1.407       .  A
C811        C816   1.408       .  A
C811        H818   1.083       .  S
C812        C813   1.403       .  A
C813        C814   1.406       .  A
C813       Br820   1.908       .  S
C814        C815   1.407       .  A
C814        H819   1.083       .  S
C815        C816   1.412       .  A
C816       Br817   1.918       .  S
C821        C822   1.398       .  A
C821        C826   1.398       .  A
C821        H828   1.081       .  S
C822        C823   1.417       .  A
C823        C824   1.408       .  A
C823       Br830   1.919       .  S
C824        C825   1.407       .  A
C824        H829   1.083       .  S
C825        C826   1.409       .  A
C826       Br827   1.897       .  S
C831        C832   1.406       .  A
C831        C836   1.405       .  A
C831        H838   1.084       .  S
C832        C833   1.407       .  A
C833        C834   1.405       .  A
C833       Br840   1.916       .  S
C834        C835   1.406       .  A
C834        H839   1.084       .  S
C835        C836   1.408       .  A
C836       Br837   1.918       .  S
C841        C842   1.408       .  A
C841        C846   1.407       .  A
C841        H848   1.083       .  S
C842        C843   1.408       .  A
C843        C844   1.404       .  A
C843       Br850   1.918       .  S
C844        C845   1.406       .  A
C844        H849   1.084       .  S
C845        C846   1.405       .  A
C846       Br847   1.914       .  S
C851        C852   1.408       .  A
C851        C856   1.406       .  A
C851        H858   1.083       .  S
C852        C853   1.409       .  A
C853        C854   1.397       .  A
C853       Br860   1.905       .  S
C854        C855   1.400       .  A
C854        H859   1.078       .  S
C855        C856   1.416       .  A
C856       Br857   1.920       .  S
C861        C862   1.416       .  A
C861        C866   1.390       .  A
C861        H868   1.083       .  S
C862        C863   1.411       .  A
C863        C864   1.404       .  A
C863       Br870   1.918       .  S
C864        C865   1.409       .  A
C864        H869   1.083       .  S
C865        C866   1.393       .  A
C866       Br867   1.919       .  S
C871        C872   1.408       .  A
C871        C876   1.409       .  A
C871        H878   1.084       .  S
C872        C873   1.401       .  A
C873        C874   1.391       .  A
C873       Br880   1.920       .  S
C874        C875   1.408       .  A
C874        H879   1.084       .  S
C875        C876   1.413       .  A
C876       Br877   1.917       .  S
C881        C882   1.408       .  A
C881        C886   1.410       .  A
C881        H888   1.083       .  S
C882        C883   1.402       .  A
C883        C884   1.387       .  A
C883       Br890   1.923       .  S
C884        C885   1.403       .  A
C884        H889   1.078       .  S
C885        C886   1.411       .  A
C886       Br887   1.917       .  S
C891        C892   1.415       .  A
C891        C896   1.398       .  A
C891        H898   1.084       .  S
C892        C893   1.401       .  A
C893        C894   1.399       .  A
C893       Br900   1.916       .  S
C894        C895   1.413       .  A
C894        H899   1.084       .  S
C895        C896   1.399       .  A
C896       Br897   1.917       .  S
C901        C902   1.402       .  A
C901        C906   1.403       .  A
C901        H908   1.081       .  S
C902        C903   1.417       .  A
C903        C904   1.405       .  A
C903       Br910   1.910       .  S
C904        C905   1.398       .  A
C904        H909   1.083       .  S
C905        C906   1.406       .  A
C906       Br907   1.899       .  S
C911        C912   1.408       .  A
C911        C916   1.406       .  A
C911        H918   1.083       .  S
C912        C913   1.403       .  A
C913        C914   1.397       .  A
C913       Br920   1.915       .  S
C914        C915   1.407       .  A
C914        H919   1.084       .  S
C915        C916   1.406       .  A
C916       Br917   1.916       .  S
C921        C922   1.404       .  A
C921        C926   1.404       .  A
C921        H928   1.084       .  S
C922        C923   1.404       .  A
C923        C924   1.398       .  A
C923       Br930   1.918       .  S
C924        C925   1.409       .  A
C924        H929   1.083       .  S
C925        C926   1.414       .  A
C926       Br927   1.913       .  S
C931        C932   1.406       .  A
C931        C936   1.395       .  A
C931        H938   1.085       .  S
C932        C933   1.408       .  A
C933        C934   1.415       .  A
C933       Br940   1.908       .  S
C934        C935   1.414       .  A
C934        H939   1.083       .  S
C935        C936   1.415       .  A
C936       Br937   1.926       .  S
C941        C942   1.399       .  A
C941        C946   1.401       .  A
C941        H948   1.083       .  S
C942        C943   1.433       .  A
C943        C944   1.394       .  A
C943       Br950   1.930       .  S
C944        C945   1.387       .  A
C944        H949   1.084       .  S
C945        C946   1.416       .  A
C946       Br947   1.915       .  S
C951        C952   1.406       .  A
C951        C956   1.391       .  A
C951        H958   1.085       .  S
C952        C953   1.412       .  A
C953        C954   1.409       .  A
C953       Br960   1.917       .  S
C954        C955   1.408       .  A
C954        H959   1.084       .  S
C955        C956   1.401       .  A
C956       Br957   1.919       .  S
C961        C962   1.393       .  A
C961        C966   1.398       .  A
C961        H968   1.084       .  S
C962        C963   1.420       .  A
C963        C964   1.398       .  A
C963       Br970   1.921       .  S
C964        C965   1.394       .  A
C964        H969   1.084       .  S
C965        C966   1.421       .  A
C966       Br967   1.921       .  S
C971        C972   1.393       .  A
C971        C976   1.398       .  A
C971        H978   1.084       .  S
C972        C973   1.421       .  A
C973        C974   1.398       .  A
C973       Br980   1.921       .  S
C974        C975   1.393       .  A
C974        H979   1.084       .  S
C975        C976   1.422       .  A
C976       Br977   1.922       .  S
C981        C982   1.387       .  A
C981        C986   1.389       .  A
C981        H988   1.084       .  S
C982        C983   1.413       .  A
C983        C984   1.409       .  A
C983       Br990   1.918       .  S
C984        C985   1.403       .  A
C984        H989   1.083       .  S
C985        C986   1.427       .  A
C986       Br987   1.927       .  S
C991        C992   1.410       .  A
C991        C996   1.409       .  A
C991        H998   1.081       .  S
C992        C993   1.422       .  A
C993        C994   1.398       .  A
C993      Br1000   1.924       .  S
C994        C995   1.400       .  A
C994        H999   1.084       .  S
C995        C996   1.408       .  A
C996       Br997   1.910       .  S
C1001      C1002   1.411       .  A
C1001      C1006   1.413       .  A
C1001      H1008   1.082       .  S
C1002      C1003   1.413       .  A
C1003      C1004   1.393       .  A
C1003     Br1010   1.926       .  S
C1004      C1005   1.406       .  A
C1004      H1009   1.085       .  S
C1005      C1006   1.407       .  A
C1006     Br1007   1.906       .  S
C1011      C1012   1.407       .  A
C1011      C1016   1.401       .  A
C1011      H1018   1.083       .  S
C1012      C1013   1.413       .  A
C1013      C1014   1.399       .  A
C1013     Br1020   1.917       .  S
C1014      C1015   1.402       .  A
C1014      H1019   1.084       .  S
C1015      C1016   1.404       .  A
C1016     Br1017   1.916       .  S
N1021      N1022   1.331       .  A
N1021      N1027   1.324       .  A
N1021     Mn1560   2.251       .  S
N1022      C1029   1.360       .  A
N1023      N1025   1.320       .  A
N1023      N1024   1.309       .  A
N1023     Mn1549   2.171       .  S
N1024      C1030   1.336       .  A
N1025      N1026   1.330       .  A
N1025     Mn1050   2.235       .  S
N1026      C1030   1.361       .  A
N1027      N1028   1.310       .  A
N1027     Mn1039   2.165       .  S
N1028      C1029   1.335       .  A
C1029      C1485   1.476       .  S
C1030      C1465   1.466       .  S
N1031      N1037   1.312       .  A
N1031      N1032   1.330       .  A
N1031     Mn1571   2.218       .  S
N1032      C1040   1.360       .  A
N1033      N1034   1.322       .  A
N1033      N1035   1.310       .  A
N1033     Mn1039   2.184       .  S
N1034      C1041   1.353       .  A
N1035      N1036   1.319       .  A
N1035     Mn1061   2.187       .  S
N1036      C1041   1.350       .  A
N1037      N1038   1.315       .  A
N1037     Mn1549   2.178       .  S
N1038      C1040   1.345       .  A
Mn1039     N1533   2.171   1_554  S
Mn1039     N1547   2.178   1_554  S
Mn1039    Cl1063   2.447       .  S
C1040      C1512   1.494       .  S
C1041      C1522   1.485       .  S
N1042      N1043   1.335       .  A
N1042      N1048   1.317       .  A
N1042     Mn1050   2.260       .  S
N1043      C1051   1.370       .  A
N1044      N1046   1.322       .  A
N1044      N1045   1.310       .  A
N1044     Mn1572   2.170       .  S
N1045      C1052   1.337       .  A
N1046      N1047   1.329       .  A
N1046     Mn1560   2.237       .  S
N1047      C1052   1.359       .  A
N1048      N1049   1.302       .  A
N1048     Mn1062   2.138       .  S
N1049      C1051   1.328       .  A
Mn1050     N1531   2.251       .  S
Mn1050     N1556   2.237       .  S
Mn1050    Cl1573   2.604       .  S
C1051      C1452   1.488       .  S
C1052      C1475   1.476       .  S
N1053      N1054   1.330       .  A
N1053      N1059   1.311       .  A
N1053     Mn1061   2.235       .  S
N1054      C1064   1.361       .  A
N1055      N1056   1.318       .  A
N1055      N1057   1.310       .  A
N1055     Mn1062   2.164       .  S
N1056      C1065   1.343       .  A
N1057      N1058   1.325       .  A
N1057     Mn1571   2.195       .  S
N1058      C1065   1.353       .  A
N1059      N1060   1.316       .  A
N1059     Mn1572   2.166       .  S
N1060      C1064   1.345       .  A
Mn1061     N1541   2.218   1_554  S
Mn1061     N1567   2.195   1_554  S
Mn1061    Cl1063   2.596       .  S
Mn1062     N1554   2.170       .  S
Mn1062     N1569   2.166       .  S
Mn1062    Cl1573   2.447       .  S
Cl1063    Mn1560   2.604       .  S
Cl1063    Mn1572   2.447       .  S
C1064      C1502   1.502       .  S
C1065      C1492   1.467       .  S
N1066      N1067   1.331       .  A
N1066      N1072   1.312       .  A
N1066     Mn1095   2.222       .  S
N1067      C1074   1.359       .  A
N1068      N1070   1.310       .  A
N1068      N1069   1.319       .  A
N1068     Mn1594   2.169       .  S
N1069      C1075   1.349       .  A
N1070      N1071   1.324       .  A
N1070     Mn1605   2.207       .  S
N1071      C1075   1.354       .  A
N1072      N1073   1.317       .  A
N1072     Mn1084   2.180       .  S
N1073      C1074   1.346       .  A
C1074      C1445   1.499       .  S
C1075      C1435   1.491       .  S
N1076      N1082   1.323       .  A
N1076      N1077   1.331       .  A
N1076     Mn1616   2.244       .  S
N1077      C1085   1.360       .  A
N1078      N1079   1.309       .  A
N1078      N1080   1.319       .  A
N1078     Mn1084   2.158       .  S
N1079      C1086   1.335       .  A
N1080      N1081   1.331       .  A
N1080     Mn1106   2.244       .  S
N1081      C1086   1.362       .  A
N1082      N1083   1.309       .  A
N1082     Mn1594   2.168       .  S
N1083      C1085   1.337       .  A
Mn1084     N1578   2.169   1_554  S
Mn1084     N1592   2.168   1_554  S
Mn1084    Cl1108   2.456       .  S
C1085      C1402   1.479       .  S
C1086      C1382   1.466       .  S
N1087      N1088   1.327       .  A
N1087      N1093   1.312       .  A
N1087     Mn1605   2.215       .  S
N1088      C1096   1.356       .  A
N1089      N1091   1.310       .  A
N1089      N1090   1.322       .  A
N1089     Mn1107   2.182       .  S
N1090      C1097   1.349       .  A
N1091      N1092   1.322       .  A
N1091     Mn1095   2.195       .  S
N1092      C1097   1.352       .  A
N1093      N1094   1.322       .  A
N1093     Mn1617   2.195       .  S
N1094      C1096   1.350       .  A
Mn1095     N1580   2.207   1_554  S
Mn1095     N1597   2.215   1_554  S
Mn1095    Cl1108   2.600       .  S
C1096      C1412   1.495       .  S
C1097      C1422   1.478       .  S
N1098      N1099   1.328       .  A
N1098      N1104   1.321       .  A
N1098     Mn1106   2.233       .  S
N1099      C1109   1.358       .  A
N1100      N1101   1.306       .  A
N1100      N1102   1.321       .  A
N1100     Mn1617   2.150       .  S
N1101      C1110   1.334       .  A
N1102      N1103   1.333       .  A
N1102     Mn1616   2.258       .  S
N1103      C1110   1.365       .  A
N1104      N1105   1.309       .  A
N1104     Mn1107   2.161       .  S
N1105      C1109   1.336       .  A
Mn1106     N1586   2.244   1_554  S
Mn1106     N1612   2.258   1_554  S
Mn1106    Cl1108   2.601       .  S
Mn1107     N1603   2.195   1_554  S
Mn1107     N1610   2.150   1_554  S
Mn1107    Cl1108   2.454       .  S
C1109      C1375   1.460       .  S
C1110      C1395   1.474       .  S
N1111      N1112   1.331       .  A
N1111      N1117   1.321       .  A
N1111     Mn1140   2.237       .  S
N1112      C1119   1.359       .  A
N1113      N1115   1.319       .  A
N1113      N1114   1.306       .  A
N1113     Mn1129   2.156       .  S
N1114      C1120   1.335       .  A
N1115      N1116   1.333       .  A
N1115     Mn1140   2.250       .  S
N1116      C1120   1.365       .  A
N1117      N1118   1.310       .  A
N1117     Mn1129   2.167       .  S
N1118      C1119   1.336       .  A
C1119      C1482   1.476       .  S
C1120      C1385   1.482       .  S
N1121      N1127   1.311       .  A
N1121      N1122   1.329       .  A
N1122      C1130   1.361       .  A
N1123      N1124   1.321       .  A
N1123      N1125   1.312       .  A
N1123     Mn1129   2.173       .  S
N1124      C1131   1.347       .  A
N1125      N1126   1.324       .  A
N1126      C1131   1.358       .  A
N1127      N1128   1.319       .  A
N1127     Mn1129   2.174       .  S
N1128      C1130   1.345       .  A
C1130      C1355   1.485       .  S
C1131      C1365   1.494       .  S
N1132      N1133   1.332       .  A
N1132      N1138   1.319       .  A
N1133      C1141   1.365       .  A
N1134      N1136   1.323       .  A
N1134      N1135   1.311       .  A
N1134     Mn1152   2.169       .  S
N1135      C1142   1.337       .  A
N1136      N1137   1.330       .  A
N1137      C1142   1.359       .  A
N1138      N1139   1.305       .  A
N1138     Mn1152   2.157       .  S
N1139      C1141   1.336       .  A
C1141      C1372   1.488       .  S
C1142      C1472   1.475       .  S
N1143      N1144   1.326       .  A
N1143      N1149   1.312       .  A
N1143     Mn1151   2.227   1_565  S
N1144      C1154   1.356       .  A
N1145      N1146   1.319       .  A
N1145      N1147   1.312       .  A
N1145     Mn1152   2.176       .  S
N1146      C1155   1.346       .  A
N1147      N1148   1.327       .  A
N1147     Mn1151   2.225   1_565  S
N1148      C1155   1.362       .  A
N1149      N1150   1.322       .  A
N1149     Mn1152   2.183       .  S
N1150      C1154   1.350       .  A
Mn1151    Cl1153   2.583       .  S
Mn1152    Cl1153   2.456   1_565  S
C1154      C1342   1.482       .  S
C1155      C1332   1.491       .  S
N1156      N1157   1.326       .  A
N1156      N1162   1.311       .  A
N1156     Mn1185   2.223       .  S
N1157      C1164   1.358       .  A
N1158      N1160   1.311       .  A
N1158      N1159   1.322       .  A
N1158     Mn1174   2.181       .  S
N1159      C1165   1.351       .  A
N1160      N1161   1.321       .  A
N1160     Mn1185   2.203       .  S
N1161      C1165   1.352       .  A
N1162      N1163   1.322       .  A
N1162     Mn1174   2.181       .  S
N1163      C1164   1.347       .  A
C1164      C1322   1.489       .  S
C1165      C1312   1.496       .  S
N1166      N1172   1.321       .  A
N1166      N1167   1.330       .  A
N1166     Mn1196   2.236       .  S
N1167      C1175   1.359       .  A
N1168      N1169   1.306       .  A
N1168      N1170   1.319       .  A
N1168     Mn1174   2.152       .  S
N1169      C1176   1.334       .  A
N1170      N1171   1.333       .  A
N1170     Mn1196   2.253       .  S
N1171      C1176   1.366       .  A
N1172      N1173   1.310       .  A
N1172     Mn1174   2.166       .  S
N1173      C1175   1.338       .  A
Mn1174    Cl1198   2.460       .  S
C1175      C1405   1.474       .  S
C1176      C1462   1.475       .  S
N1177      N1178   1.323       .  A
N1177      N1183   1.312       .  A
N1178      C1186   1.354       .  A
N1179      N1181   1.311       .  A
N1179      N1180   1.322       .  A
N1179     Mn1197   2.189       .  S
N1180      C1187   1.352       .  A
N1181      N1182   1.320       .  A
N1182      C1187   1.354       .  A
N1183      N1184   1.322       .  A
N1183     Mn1197   2.186       .  S
N1184      C1186   1.350       .  A
Mn1185    Cl1198   2.596       .  S
C1186      C1292   1.479       .  S
C1187      C1302   1.496       .  S
N1188      N1189   1.330       .  A
N1188      N1194   1.322       .  A
N1189      C1199   1.361       .  A
N1190      N1191   1.308       .  A
N1190      N1192   1.321       .  A
N1190     Mn1197   2.168       .  S
N1191      C1200   1.339       .  A
N1192      N1193   1.330       .  A
N1193      C1200   1.360       .  A
N1194      N1195   1.309       .  A
N1194     Mn1197   2.154       .  S
N1195      C1199   1.334       .  A
Mn1196    Cl1198   2.603       .  S
C1199      C1455   1.466       .  S
C1200      C1392   1.467       .  S
N1201      N1202   1.328       .  A
N1201      N1207   1.320       .  A
N1201     Mn3270   2.237   1_455  S
N1202      C1209   1.361       .  A
N1203      N1205   1.317       .  A
N1203      N1204   1.305       .  A
N1203     Mn3259   2.148       .  S
N1204      C1210   1.336       .  A
N1205      N1206   1.337       .  A
N1205     Mn1230   2.273       .  S
N1206      C1210   1.371       .  A
N1207      N1208   1.311       .  A
N1207     Mn1219   2.179   1_455  S
N1208      C1209   1.341       .  A
C1209      C1525   1.467       .  S
C1210      C1442   1.493       .  S
N1211      N1217   1.314       .  A
N1211      N1212   1.323       .  A
N1211     Mn3281   2.212       .  S
N1212      C1220   1.353       .  A
N1213      N1214   1.322       .  A
N1213      N1215   1.308       .  A
N1213     Mn1219   2.168   1_455  S
N1214      C1221   1.351       .  A
N1215      N1216   1.319       .  A
N1215     Mn1241   2.205   1_455  S
N1216      C1221   1.355       .  A
N1217      N1218   1.324       .  A
N1217     Mn3259   2.195       .  S
N1218      C1220   1.350       .  A
Mn1219     N3243   2.148       .  S
Mn1219     N3257   2.195       .  S
Mn1219    Cl1243   2.473       .  S
C1220      C1352   1.486       .  S
C1221      C1362   1.494       .  S
N1222      N1223   1.327       .  A
N1222      N1228   1.322       .  A
N1222     Mn1230   2.233       .  S
N1223      C1231   1.358       .  A
N1224      N1226   1.317       .  A
N1224      N1225   1.305       .  A
N1224     Mn1242   2.147   1_455  S
N1225      C1232   1.336       .  A
N1226      N1227   1.336       .  A
N1226     Mn3270   2.268   1_455  S
N1227      C1232   1.370       .  A
N1228      N1229   1.314       .  A
N1228     Mn3282   2.198       .  S
N1229      C1231   1.344       .  A
Mn1230     N3241   2.237       .  S
Mn1230     N3266   2.268       .  S
Mn1230    Cl3283   2.620       .  S
C1231      C1432   1.471       .  S
C1232      C1515   1.491       .  S
N1233      N1234   1.325       .  A
N1233      N1239   1.314       .  A
N1233     Mn1241   2.213   1_455  S
N1234      C1244   1.355       .  A
N1235      N1236   1.320       .  A
N1235      N1237   1.309       .  A
N1235     Mn3282   2.182       .  S
N1236      C1245   1.352       .  A
N1237      N1238   1.322       .  A
N1237     Mn3281   2.203       .  S
N1238      C1245   1.356       .  A
N1239      N1240   1.324       .  A
N1239     Mn1242   2.212   1_455  S
N1240      C1244   1.353       .  A
Mn1241     N3251   2.212       .  S
Mn1241     N3277   2.203       .  S
Mn1241    Cl1243   2.574       .  S
Mn1242     N3268   2.198       .  S
Mn1242     N3275   2.182       .  S
Mn1242    Cl1243   2.470       .  S
Cl1243    Mn3270   2.620       .  S
C1244      C1325   1.490       .  S
C1245      C1315   1.491       .  S
N1246      N1247   1.323       .  A
N1246      N1252   1.313       .  A
N1246     Mn3315   2.207   1_455  S
N1247      C1254   1.353       .  A
N1248      N1250   1.311       .  A
N1248      N1249   1.325       .  A
N1248     Mn1264   2.195       .  S
N1249      C1255   1.354       .  A
N1250      N1251   1.320       .  A
N1250     Mn1275   2.202       .  S
N1251      C1255   1.353       .  A
N1252      N1253   1.324       .  A
N1252     Mn3304   2.201   1_455  S
N1253      C1254   1.351       .  A
C1254      C1345   1.483       .  S
C1255      C1335   1.495       .  S
N1256      N1262   1.320       .  A
N1256      N1257   1.330       .  A
N1256     Mn1286   2.252       .  S
N1257      C1265   1.363       .  A
N1258      N1259   1.311       .  A
N1258      N1260   1.320       .  A
N1258     Mn3304   2.180   1_455  S
N1259      C1266   1.341       .  A
N1260      N1261   1.332       .  A
N1260     Mn3326   2.251   1_455  S
N1261      C1266   1.364       .  A
N1262      N1263   1.311       .  A
N1262     Mn1264   2.173       .  S
N1263      C1265   1.340       .  A
Mn1264     N3292   2.201       .  S
Mn1264     N3298   2.180       .  S
Mn1264    Cl1288   2.471       .  S
C1265      C1425   1.473       .  S
C1266      C1505   1.483       .  S
N1267      N1268   1.324       .  A
N1267      N1273   1.313       .  A
N1267     Mn1275   2.215       .  S
N1268      C1276   1.354       .  A
N1269      N1271   1.310       .  A
N1269      N1270   1.321       .  A
N1269     Mn3327   2.184   1_455  S
N1270      C1277   1.349       .  A
N1271      N1272   1.324       .  A
N1271     Mn3315   2.209   1_455  S
N1272      C1277   1.359       .  A
N1273      N1274   1.322       .  A
N1273     Mn1287   2.192       .  S
N1274      C1276   1.351       .  A
Mn1275     N3286   2.207       .  S
Mn1275     N3311   2.209       .  S
Mn1275    Cl1288   2.591       .  S
C1276      C1295   1.478       .  S
C1277      C1305   1.498       .  S
N1278      N1279   1.333       .  A
N1278      N1284   1.318       .  A
N1278     Mn3326   2.263   1_455  S
N1279      C1289   1.367       .  A
N1280      N1281   1.316       .  A
N1280      N1282   1.320       .  A
N1280     Mn1287   2.203       .  S
N1281      C1290   1.345       .  A
N1282      N1283   1.328       .  A
N1282     Mn1286   2.237       .  S
N1283      C1290   1.361       .  A
N1284      N1285   1.308       .  A
N1284     Mn3327   2.170   1_455  S
N1285      C1289   1.334       .  A
Mn1286     N3300   2.251       .  S
Mn1286     N3318   2.263       .  S
Mn1286    Cl1288   2.605       .  S
Mn1287     N3309   2.184       .  S
Mn1287     N3324   2.170       .  S
Mn1287    Cl1288   2.468       .  S
C1289      C1495   1.485       .  S
C1290      C1415   1.481       .  S
C1291      C1292   1.401       .  A
C1291      C1296   1.403       .  A
C1291      H1298   1.083       .  S
C1292      C1293   1.412       .  A
C1293      C1294   1.404       .  A
C1293     Br1300   1.919       .  S
C1294      C1295   1.401       .  A
C1294      H1299   1.083       .  S
C1295      C1296   1.411       .  A
C1296     Br1297   1.917       .  S
C1301      C1302   1.407       .  A
C1301      C1306   1.406       .  A
C1301      H1308   1.082       .  S
C1302      C1303   1.412       .  A
C1303      C1304   1.398       .  A
C1303     Br1310   1.908       .  S
C1304      C1305   1.399       .  A
C1304      H1309   1.073       .  S
C1305      C1306   1.419       .  A
C1306     Br1307   1.920       .  S
C1311      C1312   1.407       .  A
C1311      C1316   1.403       .  A
C1311      H1318   1.083       .  S
C1312      C1313   1.414       .  A
C1313      C1314   1.397       .  A
C1313     Br1320   1.909       .  S
C1314      C1315   1.402       .  A
C1314      H1319   1.082       .  S
C1315      C1316   1.415       .  A
C1316     Br1317   1.920       .  S
C1321      C1322   1.406       .  A
C1321      C1326   1.408       .  A
C1321      H1328   1.083       .  S
C1322      C1323   1.403       .  A
C1323      C1324   1.406       .  A
C1323     Br1330   1.908       .  S
C1324      C1325   1.407       .  A
C1324      H1329   1.083       .  S
C1325      C1326   1.412       .  A
C1326     Br1327   1.918       .  S
C1331      C1332   1.398       .  A
C1331      C1336   1.398       .  A
C1331      H1338   1.081       .  S
C1332      C1333   1.417       .  A
C1333      C1334   1.408       .  A
C1333     Br1340   1.919       .  S
C1334      C1335   1.407       .  A
C1334      H1339   1.083       .  S
C1335      C1336   1.409       .  A
C1336     Br1337   1.897   1_565  S
C1341      C1342   1.406       .  A
C1341      C1346   1.405       .  A
C1341      H1348   1.084       .  S
C1342      C1343   1.407       .  A
C1343      C1344   1.405       .  A
C1343     Br1350   1.916       .  S
C1344      C1345   1.406       .  A
C1344      H1349   1.084       .  S
C1345      C1346   1.408       .  A
C1346     Br1347   1.918       .  S
C1351      C1352   1.408       .  A
C1351      C1356   1.407       .  A
C1351      H1358   1.083       .  S
C1352      C1353   1.408       .  A
C1353      C1354   1.404       .  A
C1353     Br1360   1.918       .  S
C1354      C1355   1.406       .  A
C1354      H1359   1.084       .  S
C1355      C1356   1.405       .  A
C1356     Br1357   1.914       .  S
C1361      C1362   1.408       .  A
C1361      C1366   1.406       .  A
C1361      H1368   1.083       .  S
C1362      C1363   1.409       .  A
C1363      C1364   1.397       .  A
C1363     Br1370   1.905       .  S
C1364      C1365   1.400       .  A
C1364      H1369   1.078       .  S
C1365      C1366   1.416       .  A
C1366     Br1367   1.920       .  S
C1371      C1372   1.416       .  A
C1371      C1376   1.390       .  A
C1371      H1378   1.083       .  S
C1372      C1373   1.411       .  A
C1373      C1374   1.404       .  A
C1373     Br1380   1.918       .  S
C1374      C1375   1.409       .  A
C1374      H1379   1.083       .  S
C1375      C1376   1.393       .  A
C1376     Br1377   1.919       .  S
C1381      C1382   1.408       .  A
C1381      C1386   1.409       .  A
C1381      H1388   1.084       .  S
C1382      C1383   1.401       .  A
C1383      C1384   1.391       .  A
C1383     Br1390   1.920       .  S
C1384      C1385   1.408       .  A
C1384      H1389   1.084       .  S
C1385      C1386   1.413       .  A
C1386     Br1387   1.917       .  S
C1391      C1392   1.407       .  A
C1391      C1396   1.410       .  A
C1391      H1398   1.083       .  S
C1392      C1393   1.402       .  A
C1393      C1394   1.387       .  A
C1393     Br1400   1.923       .  S
C1394      C1395   1.403       .  A
C1394      H1399   1.078       .  S
C1395      C1396   1.411       .  A
C1396     Br1397   1.917       .  S
C1401      C1402   1.415       .  A
C1401      C1406   1.398       .  A
C1401      H1408   1.084       .  S
C1402      C1403   1.401       .  A
C1403      C1404   1.399       .  A
C1403     Br1410   1.916       .  S
C1404      C1405   1.413       .  A
C1404      H1409   1.084       .  S
C1405      C1406   1.399       .  A
C1406     Br1407   1.917       .  S
C1411      C1412   1.402       .  A
C1411      C1416   1.403       .  A
C1411      H1418   1.081       .  S
C1412      C1413   1.417       .  A
C1413      C1414   1.405       .  A
C1413     Br1420   1.910       .  S
C1414      C1415   1.398       .  A
C1414      H1419   1.083       .  S
C1415      C1416   1.406       .  A
C1416     Br1417   1.899       .  S
C1421      C1422   1.408       .  A
C1421      C1426   1.406       .  A
C1421      H1428   1.083       .  S
C1422      C1423   1.403       .  A
C1423      C1424   1.397       .  A
C1423     Br1430   1.915       .  S
C1424      C1425   1.407       .  A
C1424      H1429   1.084       .  S
C1425      C1426   1.406       .  A
C1426     Br1427   1.916       .  S
C1431      C1432   1.404       .  A
C1431      C1436   1.404       .  A
C1431      H1438   1.084       .  S
C1432      C1433   1.404       .  A
C1433      C1434   1.398       .  A
C1433     Br1440   1.918       .  S
C1434      C1435   1.409       .  A
C1434      H1439   1.083       .  S
C1435      C1436   1.414       .  A
C1436     Br1437   1.913       .  S
C1441      C1442   1.406       .  A
C1441      C1446   1.395       .  A
C1441      H1448   1.085       .  S
C1442      C1443   1.408       .  A
C1443      C1444   1.415       .  A
C1443     Br1450   1.908       .  S
C1444      C1445   1.414       .  A
C1444      H1449   1.083       .  S
C1445      C1446   1.415       .  A
C1446     Br1447   1.926       .  S
C1451      C1452   1.399       .  A
C1451      C1456   1.401       .  A
C1451      H1458   1.083       .  S
C1452      C1453   1.433       .  A
C1453      C1454   1.394       .  A
C1453     Br1460   1.930       .  S
C1454      C1455   1.387       .  A
C1454      H1459   1.084       .  S
C1455      C1456   1.416       .  A
C1456     Br1457   1.915       .  S
C1461      C1462   1.406       .  A
C1461      C1466   1.391       .  A
C1461      H1468   1.085       .  S
C1462      C1463   1.412       .  A
C1463      C1464   1.409       .  A
C1463     Br1470   1.917       .  S
C1464      C1465   1.408       .  A
C1464      H1469   1.084       .  S
C1465      C1466   1.401       .  A
C1466     Br1467   1.919       .  S
C1471      C1472   1.393       .  A
C1471      C1476   1.398       .  A
C1471      H1478   1.084       .  S
C1472      C1473   1.420       .  A
C1473      C1474   1.398       .  A
C1473     Br1480   1.921       .  S
C1474      C1475   1.394       .  A
C1474      H1479   1.084       .  S
C1475      C1476   1.421       .  A
C1476     Br1477   1.921       .  S
C1481      C1482   1.393       .  A
C1481      C1486   1.398       .  A
C1481      H1488   1.084       .  S
C1482      C1483   1.421       .  A
C1483      C1484   1.398       .  A
C1483     Br1490   1.921       .  S
C1484      C1485   1.393       .  A
C1484      H1489   1.084       .  S
C1485      C1486   1.422       .  A
C1486     Br1487   1.922       .  S
C1491      C1492   1.387       .  A
C1491      C1496   1.389       .  A
C1491      H1498   1.084       .  S
C1492      C1493   1.413       .  A
C1493      C1494   1.409       .  A
C1493     Br1500   1.918       .  S
C1494      C1495   1.403       .  A
C1494      H1499   1.083       .  S
C1495      C1496   1.427       .  A
C1496     Br1497   1.927       .  S
C1501      C1502   1.410       .  A
C1501      C1506   1.409       .  A
C1501      H1508   1.081       .  S
C1502      C1503   1.422       .  A
C1503      C1504   1.398       .  A
C1503     Br1510   1.924       .  S
C1504      C1505   1.400       .  A
C1504      H1509   1.084       .  S
C1505      C1506   1.408       .  A
C1506     Br1507   1.910       .  S
C1511      C1512   1.411       .  A
C1511      C1516   1.413       .  A
C1511      H1518   1.082       .  S
C1512      C1513   1.413       .  A
C1513      C1514   1.393       .  A
C1513     Br1520   1.926       .  S
C1514      C1515   1.406       .  A
C1514      H1519   1.085       .  S
C1515      C1516   1.407       .  A
C1516     Br1517   1.906       .  S
C1521      C1522   1.407       .  A
C1521      C1526   1.401       .  A
C1521      H1528   1.083       .  S
C1522      C1523   1.413       .  A
C1523      C1524   1.399       .  A
C1523     Br1530   1.917       .  S
C1524      C1525   1.402       .  A
C1524      H1529   1.084       .  S
C1525      C1526   1.404       .  A
C1526     Br1527   1.916       .  S
N1531      N1532   1.331       .  A
N1531      N1537   1.324       .  A
N1532      C1539   1.360       .  A
N1533      N1535   1.320       .  A
N1533      N1534   1.309       .  A
N1534      C1540   1.336       .  A
N1535      N1536   1.330       .  A
N1535     Mn1560   2.235   1_556  S
N1536      C1540   1.361       .  A
N1537      N1538   1.310       .  A
N1537     Mn1549   2.165       .  S
N1538      C1539   1.335       .  A
C1539      C1995   1.476       .  S
C1540      C1975   1.466       .  S
N1541      N1547   1.312       .  A
N1541      N1542   1.330       .  A
N1542      C1550   1.360       .  A
N1543      N1544   1.322       .  A
N1543      N1545   1.310       .  A
N1543     Mn1549   2.184       .  S
N1544      C1551   1.353       .  A
N1545      N1546   1.319       .  A
N1545     Mn1571   2.187       .  S
N1546      C1551   1.350       .  A
N1547      N1548   1.315       .  A
N1548      C1550   1.345       .  A
Mn1549    Cl1573   2.447       .  S
C1550      C2022   1.494       .  S
C1551      C2032   1.485       .  S
N1552      N1553   1.335       .  A
N1552      N1558   1.317       .  A
N1552     Mn1560   2.260   1_556  S
N1553      C1561   1.370       .  A
N1554      N1556   1.322       .  A
N1554      N1555   1.310       .  A
N1555      C1562   1.337       .  A
N1556      N1557   1.329       .  A
N1557      C1562   1.359       .  A
N1558      N1559   1.302       .  A
N1558     Mn1572   2.139   1_556  S
N1559      C1561   1.328       .  A
C1561      C1962   1.488       .  S
C1562      C1985   1.476       .  S
N1563      N1564   1.330       .  A
N1563      N1569   1.311       .  A
N1563     Mn1571   2.235       .  S
N1564      C1574   1.361       .  A
N1565      N1566   1.318       .  A
N1565      N1567   1.310       .  A
N1565     Mn1572   2.164   1_556  S
N1566      C1575   1.343       .  A
N1567      N1568   1.325       .  A
N1568      C1575   1.353       .  A
N1569      N1570   1.316       .  A
N1570      C1574   1.345       .  A
Mn1571    Cl1573   2.596       .  S
C1574      C2012   1.502       .  S
C1575      C2002   1.467       .  S
N1576      N1577   1.331       .  A
N1576      N1582   1.312       .  A
N1576     Mn1605   2.223       .  S
N1577      C1584   1.359       .  A
N1578      N1580   1.310       .  A
N1578      N1579   1.319       .  A
N1579      C1585   1.349       .  A
N1580      N1581   1.324       .  A
N1581      C1585   1.354       .  A
N1582      N1583   1.317       .  A
N1582     Mn1594   2.180       .  S
N1583      C1584   1.346       .  A
C1584      C1955   1.499       .  S
C1585      C1945   1.491       .  S
N1586      N1592   1.323       .  A
N1586      N1587   1.331       .  A
N1587      C1595   1.360       .  A
N1588      N1589   1.309       .  A
N1588      N1590   1.319       .  A
N1588     Mn1594   2.158       .  S
N1589      C1596   1.335       .  A
N1590      N1591   1.331       .  A
N1590     Mn1616   2.244       .  S
N1591      C1596   1.362       .  A
N1592      N1593   1.309       .  A
N1593      C1595   1.337       .  A
Mn1594    Cl1618   2.456       .  S
C1595      C1912   1.479       .  S
C1596      C1892   1.466       .  S
N1597      N1598   1.327       .  A
N1597      N1603   1.312       .  A
N1598      C1606   1.356       .  A
N1599      N1601   1.310       .  A
N1599      N1600   1.322       .  A
N1599     Mn1617   2.182       .  S
N1600      C1607   1.349       .  A
N1601      N1602   1.322       .  A
N1601     Mn1605   2.195       .  S
N1602      C1607   1.352       .  A
N1603      N1604   1.322       .  A
N1604      C1606   1.350       .  A
Mn1605    Cl1618   2.600       .  S
C1606      C1922   1.495       .  S
C1607      C1932   1.478       .  S
N1608      N1609   1.328       .  A
N1608      N1614   1.321       .  A
N1608     Mn1616   2.233       .  S
N1609      C1619   1.358       .  A
N1610      N1611   1.306       .  A
N1610      N1612   1.321       .  A
N1611      C1620   1.334       .  A
N1612      N1613   1.333       .  A
N1613      C1620   1.365       .  A
N1614      N1615   1.309       .  A
N1614     Mn1617   2.161       .  S
N1615      C1619   1.336       .  A
Mn1616    Cl1618   2.601       .  S
Mn1617    Cl1618   2.454       .  S
C1619      C1885   1.460       .  S
C1620      C1905   1.474       .  S
N1621      N1622   1.331       .  A
N1621      N1627   1.321       .  A
N1621     Mn1650   2.237       .  S
N1622      C1629   1.359       .  A
N1623      N1625   1.319       .  A
N1623      N1624   1.306       .  A
N1623     Mn1639   2.156       .  S
N1624      C1630   1.335       .  A
N1625      N1626   1.333       .  A
N1625     Mn1650   2.250       .  S
N1626      C1630   1.365       .  A
N1627      N1628   1.310       .  A
N1627     Mn1639   2.167       .  S
N1628      C1629   1.336       .  A
C1629      C1992   1.476       .  S
C1630      C1895   1.482       .  S
N1631      N1637   1.311       .  A
N1631      N1632   1.329       .  A
N1632      C1640   1.361       .  A
N1633      N1634   1.321       .  A
N1633      N1635   1.312       .  A
N1633     Mn1639   2.173       .  S
N1634      C1641   1.347       .  A
N1635      N1636   1.324       .  A
N1636      C1641   1.358       .  A
N1637      N1638   1.319       .  A
N1637     Mn1639   2.174       .  S
N1638      C1640   1.345       .  A
C1640      C1865   1.485       .  S
C1641      C1875   1.494       .  S
N1642      N1643   1.332       .  A
N1642      N1648   1.319       .  A
N1643      C1651   1.365       .  A
N1644      N1646   1.323       .  A
N1644      N1645   1.311       .  A
N1644     Mn1662   2.169       .  S
N1645      C1652   1.337       .  A
N1646      N1647   1.330       .  A
N1647      C1652   1.359       .  A
N1648      N1649   1.305       .  A
N1648     Mn1662   2.157       .  S
N1649      C1651   1.336       .  A
C1651      C1882   1.488       .  S
C1652      C1982   1.475       .  S
N1653      N1654   1.326       .  A
N1653      N1659   1.312       .  A
N1653     Mn1661   2.227   1_565  S
N1654      C1664   1.356       .  A
N1655      N1656   1.319       .  A
N1655      N1657   1.312       .  A
N1655     Mn1662   2.176       .  S
N1656      C1665   1.346       .  A
N1657      N1658   1.327       .  A
N1657     Mn1661   2.225   1_565  S
N1658      C1665   1.362       .  A
N1659      N1660   1.322       .  A
N1659     Mn1662   2.183       .  S
N1660      C1664   1.350       .  A
Mn1661    Cl1663   2.583       .  S
Mn1662    Cl1663   2.456   1_565  S
C1664      C1852   1.482       .  S
C1665      C1842   1.491       .  S
N1666      N1667   1.326       .  A
N1666      N1672   1.311       .  A
N1666     Mn1695   2.223       .  S
N1667      C1674   1.358       .  A
N1668      N1670   1.311       .  A
N1668      N1669   1.322       .  A
N1668     Mn1684   2.181       .  S
N1669      C1675   1.351       .  A
N1670      N1671   1.321       .  A
N1670     Mn1695   2.203       .  S
N1671      C1675   1.352       .  A
N1672      N1673   1.322       .  A
N1672     Mn1684   2.181       .  S
N1673      C1674   1.347       .  A
C1674      C1832   1.489       .  S
C1675      C1822   1.496       .  S
N1676      N1682   1.321       .  A
N1676      N1677   1.330       .  A
N1676     Mn1706   2.236       .  S
N1677      C1685   1.359       .  A
N1678      N1679   1.306       .  A
N1678      N1680   1.319       .  A
N1678     Mn1684   2.152       .  S
N1679      C1686   1.334       .  A
N1680      N1681   1.334       .  A
N1680     Mn1706   2.253       .  S
N1681      C1686   1.366       .  A
N1682      N1683   1.310       .  A
N1682     Mn1684   2.166       .  S
N1683      C1685   1.338       .  A
Mn1684    Cl1708   2.460       .  S
C1685      C1915   1.474       .  S
C1686      C1972   1.475       .  S
N1687      N1688   1.323       .  A
N1687      N1693   1.312       .  A
N1688      C1696   1.353       .  A
N1689      N1691   1.311       .  A
N1689      N1690   1.322       .  A
N1689     Mn1707   2.190       .  S
N1690      C1697   1.352       .  A
N1691      N1692   1.320       .  A
N1692      C1697   1.354       .  A
N1693      N1694   1.322       .  A
N1693     Mn1707   2.188       .  S
N1694      C1696   1.350       .  A
Mn1695    Cl1708   2.596       .  S
C1696      C1802   1.479       .  S
C1697      C1812   1.496       .  S
N1698      N1699   1.330       .  A
N1698      N1704   1.321       .  A
N1699      C1709   1.361       .  A
N1700      N1701   1.308       .  A
N1700      N1702   1.320       .  A
N1700     Mn1707   2.167       .  S
N1701      C1710   1.339       .  A
N1702      N1703   1.330       .  A
N1703      C1710   1.360       .  A
N1704      N1705   1.309       .  A
N1704     Mn1707   2.152       .  S
N1705      C1709   1.334       .  A
Mn1706    Cl1708   2.603       .  S
C1709      C1965   1.466       .  S
C1710      C1902   1.467       .  S
N1711      N1712   1.328       .  A
N1711      N1717   1.320       .  A
N1711     Mn3780   2.237   1_455  S
N1712      C1719   1.361       .  A
N1713      N1715   1.317       .  A
N1713      N1714   1.305       .  A
N1713     Mn3769   2.148       .  S
N1714      C1720   1.336       .  A
N1715      N1716   1.337       .  A
N1715     Mn1740   2.273       .  S
N1716      C1720   1.371       .  A
N1717      N1718   1.311       .  A
N1717     Mn1729   2.179   1_455  S
N1718      C1719   1.341       .  A
C1719      C2035   1.467       .  S
C1720      C1952   1.493       .  S
N1721      N1727   1.314       .  A
N1721      N1722   1.323       .  A
N1721     Mn3791   2.212       .  S
N1722      C1730   1.353       .  A
N1723      N1724   1.322       .  A
N1723      N1725   1.308       .  A
N1723     Mn1729   2.168   1_455  S
N1724      C1731   1.351       .  A
N1725      N1726   1.319       .  A
N1725     Mn1751   2.205   1_455  S
N1726      C1731   1.355       .  A
N1727      N1728   1.324       .  A
N1727     Mn3769   2.195       .  S
N1728      C1730   1.350       .  A
Mn1729     N3753   2.148       .  S
Mn1729     N3767   2.195       .  S
Mn1729    Cl1753   2.473       .  S
C1730      C1862   1.486       .  S
C1731      C1872   1.494       .  S
N1732      N1733   1.327       .  A
N1732      N1738   1.322       .  A
N1732     Mn1740   2.233       .  S
N1733      C1741   1.358       .  A
N1734      N1736   1.317       .  A
N1734      N1735   1.305       .  A
N1734     Mn1752   2.147   1_455  S
N1735      C1742   1.336       .  A
N1736      N1737   1.336       .  A
N1736     Mn3780   2.268   1_455  S
N1737      C1742   1.370       .  A
N1738      N1739   1.314       .  A
N1738     Mn3792   2.198       .  S
N1739      C1741   1.344       .  A
Mn1740     N3751   2.237       .  S
Mn1740     N3776   2.268       .  S
Mn1740    Cl3793   2.620       .  S
C1741      C1942   1.471       .  S
C1742      C2025   1.491       .  S
N1743      N1744   1.325       .  A
N1743      N1749   1.314       .  A
N1743     Mn1751   2.213   1_455  S
N1744      C1754   1.355       .  A
N1745      N1746   1.320       .  A
N1745      N1747   1.309       .  A
N1745     Mn3792   2.182       .  S
N1746      C1755   1.352       .  A
N1747      N1748   1.322       .  A
N1747     Mn3791   2.203       .  S
N1748      C1755   1.356       .  A
N1749      N1750   1.324       .  A
N1749     Mn1752   2.212   1_455  S
N1750      C1754   1.353       .  A
Mn1751     N3761   2.212       .  S
Mn1751     N3787   2.203       .  S
Mn1751    Cl1753   2.574       .  S
Mn1752     N3778   2.198       .  S
Mn1752     N3785   2.182       .  S
Mn1752    Cl1753   2.470       .  S
Cl1753    Mn3780   2.620       .  S
C1754      C1835   1.490       .  S
C1755      C1825   1.491       .  S
N1756      N1757   1.323       .  A
N1756      N1762   1.313       .  A
N1756     Mn3825   2.207   1_455  S
N1757      C1764   1.353       .  A
N1758      N1760   1.311       .  A
N1758      N1759   1.325       .  A
N1758     Mn1774   2.195       .  S
N1759      C1765   1.354       .  A
N1760      N1761   1.320       .  A
N1760     Mn1785   2.202       .  S
N1761      C1765   1.353       .  A
N1762      N1763   1.324       .  A
N1762     Mn3814   2.201   1_455  S
N1763      C1764   1.351       .  A
C1764      C1855   1.483       .  S
C1765      C1845   1.495       .  S
N1766      N1772   1.320       .  A
N1766      N1767   1.330       .  A
N1766     Mn1796   2.252       .  S
N1767      C1775   1.363       .  A
N1768      N1769   1.311       .  A
N1768      N1770   1.320       .  A
N1768     Mn3814   2.180   1_455  S
N1769      C1776   1.341       .  A
N1770      N1771   1.332       .  A
N1770     Mn3836   2.251   1_455  S
N1771      C1776   1.364       .  A
N1772      N1773   1.311       .  A
N1772     Mn1774   2.173       .  S
N1773      C1775   1.340       .  A
Mn1774     N3802   2.201       .  S
Mn1774     N3808   2.180       .  S
Mn1774    Cl1798   2.471       .  S
C1775      C1935   1.473       .  S
C1776      C2015   1.483       .  S
N1777      N1778   1.324       .  A
N1777      N1783   1.313       .  A
N1777     Mn1785   2.215       .  S
N1778      C1786   1.354       .  A
N1779      N1781   1.310       .  A
N1779      N1780   1.321       .  A
N1779     Mn3837   2.184   1_455  S
N1780      C1787   1.349       .  A
N1781      N1782   1.324       .  A
N1781     Mn3825   2.209   1_455  S
N1782      C1787   1.359       .  A
N1783      N1784   1.322       .  A
N1783     Mn1797   2.192       .  S
N1784      C1786   1.351       .  A
Mn1785     N3796   2.207       .  S
Mn1785     N3821   2.209       .  S
Mn1785    Cl1798   2.591       .  S
C1786      C1805   1.479       .  S
C1787      C1815   1.498       .  S
N1788      N1789   1.333       .  A
N1788      N1794   1.318       .  A
N1788     Mn3836   2.263   1_455  S
N1789      C1799   1.367       .  A
N1790      N1791   1.316       .  A
N1790      N1792   1.320       .  A
N1790     Mn1797   2.203       .  S
N1791      C1800   1.345       .  A
N1792      N1793   1.328       .  A
N1792     Mn1796   2.237       .  S
N1793      C1800   1.361       .  A
N1794      N1795   1.308       .  A
N1794     Mn3837   2.170   1_455  S
N1795      C1799   1.334       .  A
Mn1796     N3810   2.251       .  S
Mn1796     N3828   2.263       .  S
Mn1796    Cl1798   2.605       .  S
Mn1797     N3819   2.184       .  S
Mn1797     N3834   2.170       .  S
Mn1797    Cl1798   2.468       .  S
C1799      C2005   1.485       .  S
C1800      C1925   1.481       .  S
C1801      C1802   1.401       .  A
C1801      C1806   1.403       .  A
C1801      H1808   1.083       .  S
C1802      C1803   1.412       .  A
C1803      C1804   1.404       .  A
C1803     Br1810   1.919       .  S
C1804      C1805   1.401       .  A
C1804      H1809   1.083       .  S
C1805      C1806   1.411       .  A
C1806     Br1807   1.917       .  S
C1811      C1812   1.407       .  A
C1811      C1816   1.406       .  A
C1811      H1818   1.082       .  S
C1812      C1813   1.412       .  A
C1813      C1814   1.398       .  A
C1813     Br1820   1.908       .  S
C1814      C1815   1.399       .  A
C1814      H1819   1.073       .  S
C1815      C1816   1.419       .  A
C1816     Br1817   1.920       .  S
C1821      C1822   1.407       .  A
C1821      C1826   1.403       .  A
C1821      H1828   1.083       .  S
C1822      C1823   1.414       .  A
C1823      C1824   1.397       .  A
C1823     Br1830   1.909       .  S
C1824      C1825   1.402       .  A
C1824      H1829   1.082       .  S
C1825      C1826   1.415       .  A
C1826     Br1827   1.920       .  S
C1831      C1832   1.406       .  A
C1831      C1836   1.408       .  A
C1831      H1838   1.083       .  S
C1832      C1833   1.403       .  A
C1833      C1834   1.406       .  A
C1833     Br1840   1.908       .  S
C1834      C1835   1.407       .  A
C1834      H1839   1.083       .  S
C1835      C1836   1.412       .  A
C1836     Br1837   1.918       .  S
C1841      C1842   1.398       .  A
C1841      C1846   1.398       .  A
C1841      H1848   1.081       .  S
C1842      C1843   1.417       .  A
C1843      C1844   1.408       .  A
C1843     Br1850   1.919       .  S
C1844      C1845   1.407       .  A
C1844      H1849   1.083       .  S
C1845      C1846   1.409       .  A
C1846     Br1847   1.898   1_565  S
C1851      C1852   1.406       .  A
C1851      C1856   1.405       .  A
C1851      H1858   1.084       .  S
C1852      C1853   1.407       .  A
C1853      C1854   1.405       .  A
C1853     Br1860   1.916       .  S
C1854      C1855   1.406       .  A
C1854      H1859   1.084       .  S
C1855      C1856   1.408       .  A
C1856     Br1857   1.918       .  S
C1861      C1862   1.408       .  A
C1861      C1866   1.407       .  A
C1861      H1868   1.083       .  S
C1862      C1863   1.408       .  A
C1863      C1864   1.404       .  A
C1863     Br1870   1.918       .  S
C1864      C1865   1.406       .  A
C1864      H1869   1.084       .  S
C1865      C1866   1.405       .  A
C1866     Br1867   1.914       .  S
C1871      C1872   1.408       .  A
C1871      C1876   1.406       .  A
C1871      H1878   1.083       .  S
C1872      C1873   1.409       .  A
C1873      C1874   1.397       .  A
C1873     Br1880   1.905       .  S
C1874      C1875   1.400       .  A
C1874      H1879   1.078       .  S
C1875      C1876   1.416       .  A
C1876     Br1877   1.920       .  S
C1881      C1882   1.416       .  A
C1881      C1886   1.390       .  A
C1881      H1888   1.083       .  S
C1882      C1883   1.411       .  A
C1883      C1884   1.404       .  A
C1883     Br1890   1.918       .  S
C1884      C1885   1.409       .  A
C1884      H1889   1.083       .  S
C1885      C1886   1.393       .  A
C1886     Br1887   1.919       .  S
C1891      C1892   1.408       .  A
C1891      C1896   1.409       .  A
C1891      H1898   1.084       .  S
C1892      C1893   1.401       .  A
C1893      C1894   1.391       .  A
C1893     Br1900   1.920       .  S
C1894      C1895   1.408       .  A
C1894      H1899   1.084       .  S
C1895      C1896   1.413       .  A
C1896     Br1897   1.917       .  S
C1901      C1902   1.407       .  A
C1901      C1906   1.410       .  A
C1901      H1908   1.083       .  S
C1902      C1903   1.402       .  A
C1903      C1904   1.387       .  A
C1903     Br1910   1.923       .  S
C1904      C1905   1.403       .  A
C1904      H1909   1.078       .  S
C1905      C1906   1.411       .  A
C1906     Br1907   1.917       .  S
C1911      C1912   1.415       .  A
C1911      C1916   1.398       .  A
C1911      H1918   1.084       .  S
C1912      C1913   1.401       .  A
C1913      C1914   1.399       .  A
C1913     Br1920   1.916       .  S
C1914      C1915   1.413       .  A
C1914      H1919   1.084       .  S
C1915      C1916   1.399       .  A
C1916     Br1917   1.917       .  S
C1921      C1922   1.402       .  A
C1921      C1926   1.403       .  A
C1921      H1928   1.081       .  S
C1922      C1923   1.417       .  A
C1923      C1924   1.405       .  A
C1923     Br1930   1.910       .  S
C1924      C1925   1.398       .  A
C1924      H1929   1.083       .  S
C1925      C1926   1.406       .  A
C1926     Br1927   1.899       .  S
C1931      C1932   1.408       .  A
C1931      C1936   1.406       .  A
C1931      H1938   1.083       .  S
C1932      C1933   1.403       .  A
C1933      C1934   1.397       .  A
C1933     Br1940   1.915       .  S
C1934      C1935   1.407       .  A
C1934      H1939   1.084       .  S
C1935      C1936   1.406       .  A
C1936     Br1937   1.916       .  S
C1941      C1942   1.404       .  A
C1941      C1946   1.404       .  A
C1941      H1948   1.084       .  S
C1942      C1943   1.404       .  A
C1943      C1944   1.398       .  A
C1943     Br1950   1.918       .  S
C1944      C1945   1.409       .  A
C1944      H1949   1.083       .  S
C1945      C1946   1.414       .  A
C1946     Br1947   1.913       .  S
C1951      C1952   1.406       .  A
C1951      C1956   1.395       .  A
C1951      H1958   1.085       .  S
C1952      C1953   1.408       .  A
C1953      C1954   1.415       .  A
C1953     Br1960   1.908       .  S
C1954      C1955   1.414       .  A
C1954      H1959   1.083       .  S
C1955      C1956   1.415       .  A
C1956     Br1957   1.926       .  S
C1961      C1962   1.399       .  A
C1961      C1966   1.401       .  A
C1961      H1968   1.083       .  S
C1962      C1963   1.433       .  A
C1963      C1964   1.394       .  A
C1963     Br1970   1.930       .  S
C1964      C1965   1.387       .  A
C1964      H1969   1.084       .  S
C1965      C1966   1.416       .  A
C1966     Br1967   1.915       .  S
C1971      C1972   1.406       .  A
C1971      C1976   1.391       .  A
C1971      H1978   1.085       .  S
C1972      C1973   1.412       .  A
C1973      C1974   1.409       .  A
C1973     Br1980   1.917       .  S
C1974      C1975   1.408       .  A
C1974      H1979   1.084       .  S
C1975      C1976   1.401       .  A
C1976     Br1977   1.919       .  S
C1981      C1982   1.393       .  A
C1981      C1986   1.398       .  A
C1981      H1988   1.084       .  S
C1982      C1983   1.420       .  A
C1983      C1984   1.398       .  A
C1983     Br1990   1.921       .  S
C1984      C1985   1.394       .  A
C1984      H1989   1.084       .  S
C1985      C1986   1.421       .  A
C1986     Br1987   1.921       .  S
C1991      C1992   1.393       .  A
C1991      C1996   1.398       .  A
C1991      H1998   1.084       .  S
C1992      C1993   1.421       .  A
C1993      C1994   1.398       .  A
C1993     Br2000   1.921       .  S
C1994      C1995   1.393       .  A
C1994      H1999   1.084       .  S
C1995      C1996   1.422       .  A
C1996     Br1997   1.922       .  S
C2001      C2002   1.387       .  A
C2001      C2006   1.389       .  A
C2001      H2008   1.084       .  S
C2002      C2003   1.413       .  A
C2003      C2004   1.409       .  A
C2003     Br2010   1.918       .  S
C2004      C2005   1.403       .  A
C2004      H2009   1.083       .  S
C2005      C2006   1.427       .  A
C2006     Br2007   1.927       .  S
C2011      C2012   1.410       .  A
C2011      C2016   1.409       .  A
C2011      H2018   1.081       .  S
C2012      C2013   1.422       .  A
C2013      C2014   1.398       .  A
C2013     Br2020   1.924       .  S
C2014      C2015   1.400       .  A
C2014      H2019   1.084       .  S
C2015      C2016   1.408       .  A
C2016     Br2017   1.910       .  S
C2021      C2022   1.411       .  A
C2021      C2026   1.413       .  A
C2021      H2028   1.082       .  S
C2022      C2023   1.413       .  A
C2023      C2024   1.393       .  A
C2023     Br2030   1.926       .  S
C2024      C2025   1.406       .  A
C2024      H2029   1.085       .  S
C2025      C2026   1.407       .  A
C2026     Br2027   1.906       .  S
C2031      C2032   1.407       .  A
C2031      C2036   1.401       .  A
C2031      H2038   1.083       .  S
C2032      C2033   1.413       .  A
C2033      C2034   1.399       .  A
C2033     Br2040   1.917       .  S
C2034      C2035   1.402       .  A
C2034      H2039   1.084       .  S
C2035      C2036   1.404       .  A
C2036     Br2037   1.916       .  S
N2041      N2042   1.331       .  A
N2041      N2047   1.324       .  A
N2041     Mn2580   2.251       .  S
N2042      C2049   1.360       .  A
N2043      N2045   1.320       .  A
N2043      N2044   1.309       .  A
N2043     Mn2569   2.171       .  S
N2044      C2050   1.336       .  A
N2045      N2046   1.330       .  A
N2045     Mn2070   2.235       .  S
N2046      C2050   1.361       .  A
N2047      N2048   1.310       .  A
N2047     Mn2059   2.165       .  S
N2048      C2049   1.335       .  A
C2049      C2505   1.476       .  S
C2050      C2485   1.466       .  S
N2051      N2057   1.312       .  A
N2051      N2052   1.330       .  A
N2051     Mn2591   2.218       .  S
N2052      C2060   1.360       .  A
N2053      N2054   1.322       .  A
N2053      N2055   1.310       .  A
N2053     Mn2059   2.184       .  S
N2054      C2061   1.353       .  A
N2055      N2056   1.319       .  A
N2055     Mn2081   2.187       .  S
N2056      C2061   1.350       .  A
N2057      N2058   1.315       .  A
N2057     Mn2569   2.178       .  S
N2058      C2060   1.345       .  A
Mn2059     N2553   2.171   1_554  S
Mn2059     N2567   2.178   1_554  S
Mn2059    Cl2083   2.447       .  S
C2060      C2532   1.494       .  S
C2061      C2542   1.485       .  S
N2062      N2063   1.335       .  A
N2062      N2068   1.317       .  A
N2062     Mn2070   2.260       .  S
N2063      C2071   1.370       .  A
N2064      N2066   1.322       .  A
N2064      N2065   1.310       .  A
N2064     Mn2592   2.170       .  S
N2065      C2072   1.337       .  A
N2066      N2067   1.329       .  A
N2066     Mn2580   2.237       .  S
N2067      C2072   1.359       .  A
N2068      N2069   1.302       .  A
N2068     Mn2082   2.138       .  S
N2069      C2071   1.328       .  A
Mn2070     N2551   2.251       .  S
Mn2070     N2576   2.237       .  S
Mn2070    Cl2593   2.604       .  S
C2071      C2472   1.488       .  S
C2072      C2495   1.476       .  S
N2073      N2074   1.330       .  A
N2073      N2079   1.311       .  A
N2073     Mn2081   2.235       .  S
N2074      C2084   1.361       .  A
N2075      N2076   1.318       .  A
N2075      N2077   1.310       .  A
N2075     Mn2082   2.164       .  S
N2076      C2085   1.343       .  A
N2077      N2078   1.325       .  A
N2077     Mn2591   2.195       .  S
N2078      C2085   1.353       .  A
N2079      N2080   1.316       .  A
N2079     Mn2592   2.166       .  S
N2080      C2084   1.345       .  A
Mn2081     N2561   2.218   1_554  S
Mn2081     N2587   2.195   1_554  S
Mn2081    Cl2083   2.596       .  S
Mn2082     N2574   2.170       .  S
Mn2082     N2589   2.166       .  S
Mn2082    Cl2593   2.447       .  S
Cl2083    Mn2580   2.604       .  S
Cl2083    Mn2592   2.447       .  S
C2084      C2522   1.502       .  S
C2085      C2512   1.467       .  S
N2086      N2087   1.331       .  A
N2086      N2092   1.312       .  A
N2086     Mn2115   2.223       .  S
N2087      C2094   1.359       .  A
N2088      N2090   1.310       .  A
N2088      N2089   1.319       .  A
N2088     Mn2614   2.169       .  S
N2089      C2095   1.349       .  A
N2090      N2091   1.324       .  A
N2090     Mn2625   2.207       .  S
N2091      C2095   1.354       .  A
N2092      N2093   1.317       .  A
N2092     Mn2104   2.180       .  S
N2093      C2094   1.346       .  A
C2094      C2465   1.499       .  S
C2095      C2455   1.491       .  S
N2096      N2102   1.323       .  A
N2096      N2097   1.331       .  A
N2096     Mn2636   2.244       .  S
N2097      C2105   1.360       .  A
N2098      N2099   1.309       .  A
N2098      N2100   1.319       .  A
N2098     Mn2104   2.158       .  S
N2099      C2106   1.335       .  A
N2100      N2101   1.331       .  A
N2100     Mn2126   2.244       .  S
N2101      C2106   1.362       .  A
N2102      N2103   1.309       .  A
N2102     Mn2614   2.168       .  S
N2103      C2105   1.337       .  A
Mn2104     N2598   2.169   1_554  S
Mn2104     N2612   2.168   1_554  S
Mn2104    Cl2128   2.456       .  S
C2105      C2422   1.479       .  S
C2106      C2402   1.466       .  S
N2107      N2108   1.327       .  A
N2107      N2113   1.312       .  A
N2107     Mn2625   2.215       .  S
N2108      C2116   1.356       .  A
N2109      N2111   1.310       .  A
N2109      N2110   1.322       .  A
N2109     Mn2127   2.182       .  S
N2110      C2117   1.349       .  A
N2111      N2112   1.322       .  A
N2111     Mn2115   2.195       .  S
N2112      C2117   1.352       .  A
N2113      N2114   1.322       .  A
N2113     Mn2637   2.195       .  S
N2114      C2116   1.350       .  A
Mn2115     N2600   2.207   1_554  S
Mn2115     N2617   2.215   1_554  S
Mn2115    Cl2128   2.600       .  S
C2116      C2432   1.495       .  S
C2117      C2442   1.478       .  S
N2118      N2119   1.328       .  A
N2118      N2124   1.321       .  A
N2118     Mn2126   2.233       .  S
N2119      C2129   1.358       .  A
N2120      N2121   1.306       .  A
N2120      N2122   1.321       .  A
N2120     Mn2637   2.150       .  S
N2121      C2130   1.334       .  A
N2122      N2123   1.333       .  A
N2122     Mn2636   2.258       .  S
N2123      C2130   1.365       .  A
N2124      N2125   1.309       .  A
N2124     Mn2127   2.161       .  S
N2125      C2129   1.336       .  A
Mn2126     N2606   2.244   1_554  S
Mn2126     N2632   2.258   1_554  S
Mn2126    Cl2128   2.601       .  S
Mn2127     N2623   2.195   1_554  S
Mn2127     N2630   2.150   1_554  S
Mn2127    Cl2128   2.454       .  S
C2129      C2395   1.460       .  S
C2130      C2415   1.474       .  S
N2131      N2132   1.331       .  A
N2131      N2137   1.321       .  A
N2131     Mn2160   2.237       .  S
N2132      C2139   1.359       .  A
N2133      N2135   1.319       .  A
N2133      N2134   1.306       .  A
N2133     Mn2149   2.156       .  S
N2134      C2140   1.335       .  A
N2135      N2136   1.333       .  A
N2135     Mn2160   2.250       .  S
N2136      C2140   1.365       .  A
N2137      N2138   1.310       .  A
N2137     Mn2149   2.167       .  S
N2138      C2139   1.336       .  A
C2139      C2502   1.476       .  S
C2140      C2405   1.482       .  S
N2141      N2147   1.311       .  A
N2141      N2142   1.329       .  A
N2141     Mn3191   2.230       .  S
N2142      C2150   1.361       .  A
N2143      N2144   1.321       .  A
N2143      N2145   1.312       .  A
N2143     Mn2149   2.173       .  S
N2144      C2151   1.347       .  A
N2145      N2146   1.324       .  A
N2145     Mn3191   2.219       .  S
N2146      C2151   1.358       .  A
N2147      N2148   1.319       .  A
N2147     Mn2149   2.174       .  S
N2148      C2150   1.345       .  A
Mn2149    Cl3193   2.452       .  S
C2150      C2375   1.485       .  S
C2151      C2385   1.494       .  S
N2152      N2153   1.332       .  A
N2152      N2158   1.319       .  A
N2152     Mn3180   2.244       .  S
N2153      C2161   1.365       .  A
N2154      N2156   1.323       .  A
N2154      N2155   1.311       .  A
N2154     Mn2172   2.169       .  S
N2155      C2162   1.337       .  A
N2156      N2157   1.330       .  A
N2156     Mn3180   2.242       .  S
N2157      C2162   1.359       .  A
N2158      N2159   1.305       .  A
N2158     Mn2172   2.157       .  S
N2159      C2161   1.336       .  A
Mn2160     N3172   2.244   1_545  S
Mn2160     N3176   2.242   1_545  S
Mn2160    Cl3193   2.619       .  S
C2161      C2392   1.488       .  S
C2162      C2492   1.475       .  S
N2163      N2164   1.326       .  A
N2163      N2169   1.312       .  A
N2163     Mn2171   2.227       .  S
N2164      C2174   1.356       .  A
N2165      N2166   1.319       .  A
N2165      N2167   1.312       .  A
N2165     Mn2172   2.176       .  S
N2166      C2175   1.346       .  A
N2167      N2168   1.327       .  A
N2167     Mn2171   2.225       .  S
N2168      C2175   1.362       .  A
N2169      N2170   1.322       .  A
N2169     Mn2172   2.183       .  S
N2170      C2174   1.350       .  A
Mn2171     N3161   2.230       .  S
Mn2171     N3165   2.219       .  S
Mn2171    Cl2173   2.583       .  S
Mn2172    Cl2173   2.456       .  S
Cl2173    Mn3169   2.452       .  S
Cl2173    Mn3180   2.619       .  S
C2174      C2362   1.482       .  S
C2175      C2352   1.491       .  S
N2176      N2177   1.326       .  A
N2176      N2182   1.311       .  A
N2176     Mn2205   2.223       .  S
N2177      C2184   1.358       .  A
N2178      N2180   1.311       .  A
N2178      N2179   1.322       .  A
N2178     Mn2194   2.181       .  S
N2179      C2185   1.351       .  A
N2180      N2181   1.321       .  A
N2180     Mn2205   2.203       .  S
N2181      C2185   1.352       .  A
N2182      N2183   1.322       .  A
N2182     Mn2194   2.181       .  S
N2183      C2184   1.347       .  A
C2184      C2342   1.489       .  S
C2185      C2332   1.496       .  S
N2186      N2192   1.321       .  A
N2186      N2187   1.330       .  A
N2186     Mn2216   2.236       .  S
N2187      C2195   1.359       .  A
N2188      N2189   1.306       .  A
N2188      N2190   1.319       .  A
N2188     Mn2194   2.152       .  S
N2189      C2196   1.334       .  A
N2190      N2191   1.333       .  A
N2190     Mn2216   2.253       .  S
N2191      C2196   1.366       .  A
N2192      N2193   1.310       .  A
N2192     Mn2194   2.166       .  S
N2193      C2195   1.338       .  A
Mn2194    Cl2218   2.460       .  S
C2195      C2425   1.474       .  S
C2196      C2482   1.475       .  S
N2197      N2198   1.323       .  A
N2197      N2203   1.312       .  A
N2197     Mn3225   2.213       .  S
N2198      C2206   1.354       .  A
N2199      N2201   1.311       .  A
N2199      N2200   1.322       .  A
N2199     Mn2217   2.189       .  S
N2200      C2207   1.352       .  A
N2201      N2202   1.320       .  A
N2201     Mn3225   2.200       .  S
N2202      C2207   1.354       .  A
N2203      N2204   1.322       .  A
N2203     Mn2217   2.186       .  S
N2204      C2206   1.350       .  A
Mn2205     N3217   2.213   1_545  S
Mn2205     N3221   2.200   1_545  S
Mn2205    Cl2218   2.596       .  S
C2206      C2312   1.479       .  S
C2207      C2322   1.496       .  S
N2208      N2209   1.330       .  A
N2208      N2214   1.322       .  A
N2208     Mn3236   2.248       .  S
N2209      C2219   1.361       .  A
N2210      N2211   1.308       .  A
N2210      N2212   1.321       .  A
N2210     Mn2217   2.168       .  S
N2211      C2220   1.339       .  A
N2212      N2213   1.330       .  A
N2212     Mn3236   2.240       .  S
N2213      C2220   1.360       .  A
N2214      N2215   1.309       .  A
N2214     Mn2217   2.154       .  S
N2215      C2219   1.334       .  A
Mn2216     N3228   2.248   1_545  S
Mn2216     N3232   2.240   1_545  S
Mn2216    Cl2218   2.603       .  S
Mn2217    Cl3238   2.465       .  S
Cl2218    Mn3237   2.465   1_545  S
C2219      C2475   1.466       .  S
C2220      C2412   1.467       .  S
N2221      N2222   1.328       .  A
N2221      N2227   1.320       .  A
N2222      C2229   1.361       .  A
N2223      N2225   1.317       .  A
N2223      N2224   1.305       .  A
N2224      C2230   1.336       .  A
N2225      N2226   1.337       .  A
N2225     Mn2250   2.273       .  S
N2226      C2230   1.371       .  A
N2227      N2228   1.311       .  A
N2227     Mn2239   2.179       .  S
N2228      C2229   1.341       .  A
C2229      C2545   1.467       .  S
C2230      C2462   1.493       .  S
N2231      N2237   1.314       .  A
N2231      N2232   1.323       .  A
N2232      C2240   1.353       .  A
N2233      N2234   1.322       .  A
N2233      N2235   1.308       .  A
N2233     Mn2239   2.168       .  S
N2234      C2241   1.351       .  A
N2235      N2236   1.319       .  A
N2235     Mn2261   2.205       .  S
N2236      C2241   1.355       .  A
N2237      N2238   1.324       .  A
N2238      C2240   1.350       .  A
Mn2239    Cl2263   2.473       .  S
C2240      C2372   1.486       .  S
C2241      C2382   1.494       .  S
N2242      N2243   1.327       .  A
N2242      N2248   1.322       .  A
N2242     Mn2250   2.233       .  S
N2243      C2251   1.358       .  A
N2244      N2246   1.317       .  A
N2244      N2245   1.305       .  A
N2244     Mn2262   2.147       .  S
N2245      C2252   1.336       .  A
N2246      N2247   1.336       .  A
N2247      C2252   1.370       .  A
N2248      N2249   1.314       .  A
N2249      C2251   1.344       .  A
C2251      C2452   1.471       .  S
C2252      C2535   1.491       .  S
N2253      N2254   1.325       .  A
N2253      N2259   1.314       .  A
N2253     Mn2261   2.213       .  S
N2254      C2264   1.355       .  A
N2255      N2256   1.320       .  A
N2255      N2257   1.309       .  A
N2256      C2265   1.352       .  A
N2257      N2258   1.322       .  A
N2258      C2265   1.356       .  A
N2259      N2260   1.324       .  A
N2259     Mn2262   2.212       .  S
N2260      C2264   1.353       .  A
Mn2261    Cl2263   2.574       .  S
Mn2262    Cl2263   2.470       .  S
C2264      C2345   1.490       .  S
C2265      C2335   1.491       .  S
N2266      N2267   1.323       .  A
N2266      N2272   1.313       .  A
N2267      C2274   1.353       .  A
N2268      N2270   1.311       .  A
N2268      N2269   1.325       .  A
N2268     Mn2284   2.195       .  S
N2269      C2275   1.354       .  A
N2270      N2271   1.320       .  A
N2270     Mn2295   2.202       .  S
N2271      C2275   1.353       .  A
N2272      N2273   1.324       .  A
N2273      C2274   1.351       .  A
C2274      C2365   1.483       .  S
C2275      C2355   1.495       .  S
N2276      N2282   1.320       .  A
N2276      N2277   1.330       .  A
N2276     Mn2306   2.252       .  S
N2277      C2285   1.363       .  A
N2278      N2279   1.311       .  A
N2278      N2280   1.320       .  A
N2279      C2286   1.341       .  A
N2280      N2281   1.332       .  A
N2281      C2286   1.364       .  A
N2282      N2283   1.311       .  A
N2282     Mn2284   2.173       .  S
N2283      C2285   1.340       .  A
Mn2284    Cl2308   2.471       .  S
C2285      C2445   1.473       .  S
C2286      C2525   1.483       .  S
N2287      N2288   1.324       .  A
N2287      N2293   1.313       .  A
N2287     Mn2295   2.215       .  S
N2288      C2296   1.354       .  A
N2289      N2291   1.310       .  A
N2289      N2290   1.321       .  A
N2290      C2297   1.349       .  A
N2291      N2292   1.324       .  A
N2292      C2297   1.359       .  A
N2293      N2294   1.322       .  A
N2293     Mn2307   2.192       .  S
N2294      C2296   1.351       .  A
Mn2295    Cl2308   2.591       .  S
C2296      C2315   1.478       .  S
C2297      C2325   1.498       .  S
N2298      N2299   1.333       .  A
N2298      N2304   1.318       .  A
N2299      C2309   1.367       .  A
N2300      N2301   1.316       .  A
N2300      N2302   1.320       .  A
N2300     Mn2307   2.203       .  S
N2301      C2310   1.345       .  A
N2302      N2303   1.328       .  A
N2302     Mn2306   2.237       .  S
N2303      C2310   1.361       .  A
N2304      N2305   1.308       .  A
N2305      C2309   1.334       .  A
Mn2306    Cl2308   2.605       .  S
Mn2307    Cl2308   2.468       .  S
C2309      C2515   1.485       .  S
C2310      C2435   1.481       .  S
C2311      C2312   1.401       .  A
C2311      C2316   1.403       .  A
C2311      H2318   1.083       .  S
C2312      C2313   1.412       .  A
C2313      C2314   1.404       .  A
C2313     Br2320   1.919       .  S
C2314      C2315   1.401       .  A
C2314      H2319   1.083       .  S
C2315      C2316   1.411       .  A
C2316     Br2317   1.917       .  S
C2321      C2322   1.407       .  A
C2321      C2326   1.406       .  A
C2321      H2328   1.082       .  S
C2322      C2323   1.412       .  A
C2323      C2324   1.398       .  A
C2323     Br2330   1.908       .  S
C2324      C2325   1.399       .  A
C2324      H2329   1.073       .  S
C2325      C2326   1.419       .  A
C2326     Br2327   1.920       .  S
C2331      C2332   1.407       .  A
C2331      C2336   1.403       .  A
C2331      H2338   1.083       .  S
C2332      C2333   1.414       .  A
C2333      C2334   1.397       .  A
C2333     Br2340   1.909       .  S
C2334      C2335   1.402       .  A
C2334      H2339   1.082       .  S
C2335      C2336   1.415       .  A
C2336     Br2337   1.920       .  S
C2341      C2342   1.406       .  A
C2341      C2346   1.408       .  A
C2341      H2348   1.083       .  S
C2342      C2343   1.403       .  A
C2343      C2344   1.406       .  A
C2343     Br2350   1.908       .  S
C2344      C2345   1.407       .  A
C2344      H2349   1.083       .  S
C2345      C2346   1.412       .  A
C2346     Br2347   1.918       .  S
C2351      C2352   1.398       .  A
C2351      C2356   1.398       .  A
C2351      H2358   1.081       .  S
C2352      C2353   1.417       .  A
C2353      C2354   1.408       .  A
C2353     Br2360   1.919       .  S
C2354      C2355   1.407       .  A
C2354      H2359   1.083       .  S
C2355      C2356   1.409       .  A
C2356     Br2357   1.897       .  S
C2361      C2362   1.406       .  A
C2361      C2366   1.405       .  A
C2361      H2368   1.084       .  S
C2362      C2363   1.407       .  A
C2363      C2364   1.405       .  A
C2363     Br2370   1.916       .  S
C2364      C2365   1.406       .  A
C2364      H2369   1.084       .  S
C2365      C2366   1.408       .  A
C2366     Br2367   1.918       .  S
C2371      C2372   1.408       .  A
C2371      C2376   1.407       .  A
C2371      H2378   1.083       .  S
C2372      C2373   1.408       .  A
C2373      C2374   1.404       .  A
C2373     Br2380   1.918       .  S
C2374      C2375   1.406       .  A
C2374      H2379   1.084       .  S
C2375      C2376   1.405       .  A
C2376     Br2377   1.914       .  S
C2381      C2382   1.408       .  A
C2381      C2386   1.406       .  A
C2381      H2388   1.083       .  S
C2382      C2383   1.409       .  A
C2383      C2384   1.397       .  A
C2383     Br2390   1.905       .  S
C2384      C2385   1.400       .  A
C2384      H2389   1.078       .  S
C2385      C2386   1.416       .  A
C2386     Br2387   1.920       .  S
C2391      C2392   1.416       .  A
C2391      C2396   1.390       .  A
C2391      H2398   1.083       .  S
C2392      C2393   1.411       .  A
C2393      C2394   1.404       .  A
C2393     Br2400   1.918       .  S
C2394      C2395   1.409       .  A
C2394      H2399   1.083       .  S
C2395      C2396   1.393       .  A
C2396     Br2397   1.919       .  S
C2401      C2402   1.408       .  A
C2401      C2406   1.409       .  A
C2401      H2408   1.084       .  S
C2402      C2403   1.401       .  A
C2403      C2404   1.391       .  A
C2403     Br2410   1.920       .  S
C2404      C2405   1.408       .  A
C2404      H2409   1.084       .  S
C2405      C2406   1.413       .  A
C2406     Br2407   1.917       .  S
C2411      C2412   1.407       .  A
C2411      C2416   1.410       .  A
C2411      H2418   1.083       .  S
C2412      C2413   1.402       .  A
C2413      C2414   1.387       .  A
C2413     Br2420   1.923       .  S
C2414      C2415   1.403       .  A
C2414      H2419   1.078       .  S
C2415      C2416   1.411       .  A
C2416     Br2417   1.917       .  S
C2421      C2422   1.415       .  A
C2421      C2426   1.398       .  A
C2421      H2428   1.084       .  S
C2422      C2423   1.401       .  A
C2423      C2424   1.399       .  A
C2423     Br2430   1.916       .  S
C2424      C2425   1.413       .  A
C2424      H2429   1.084       .  S
C2425      C2426   1.399       .  A
C2426     Br2427   1.917       .  S
C2431      C2432   1.402       .  A
C2431      C2436   1.403       .  A
C2431      H2438   1.081       .  S
C2432      C2433   1.417       .  A
C2433      C2434   1.405       .  A
C2433     Br2440   1.910       .  S
C2434      C2435   1.398       .  A
C2434      H2439   1.083       .  S
C2435      C2436   1.406       .  A
C2436     Br2437   1.899       .  S
C2441      C2442   1.408       .  A
C2441      C2446   1.406       .  A
C2441      H2448   1.083       .  S
C2442      C2443   1.403       .  A
C2443      C2444   1.397       .  A
C2443     Br2450   1.915       .  S
C2444      C2445   1.407       .  A
C2444      H2449   1.084       .  S
C2445      C2446   1.406       .  A
C2446     Br2447   1.916       .  S
C2451      C2452   1.404       .  A
C2451      C2456   1.404       .  A
C2451      H2458   1.084       .  S
C2452      C2453   1.404       .  A
C2453      C2454   1.398       .  A
C2453     Br2460   1.918       .  S
C2454      C2455   1.409       .  A
C2454      H2459   1.083       .  S
C2455      C2456   1.414       .  A
C2456     Br2457   1.913       .  S
C2461      C2462   1.406       .  A
C2461      C2466   1.395       .  A
C2461      H2468   1.085       .  S
C2462      C2463   1.408       .  A
C2463      C2464   1.415       .  A
C2463     Br2470   1.908       .  S
C2464      C2465   1.414       .  A
C2464      H2469   1.083       .  S
C2465      C2466   1.415       .  A
C2466     Br2467   1.926       .  S
C2471      C2472   1.399       .  A
C2471      C2476   1.401       .  A
C2471      H2478   1.083       .  S
C2472      C2473   1.433       .  A
C2473      C2474   1.394       .  A
C2473     Br2480   1.930       .  S
C2474      C2475   1.387       .  A
C2474      H2479   1.084       .  S
C2475      C2476   1.416       .  A
C2476     Br2477   1.915       .  S
C2481      C2482   1.406       .  A
C2481      C2486   1.391       .  A
C2481      H2488   1.085       .  S
C2482      C2483   1.412       .  A
C2483      C2484   1.409       .  A
C2483     Br2490   1.917       .  S
C2484      C2485   1.408       .  A
C2484      H2489   1.084       .  S
C2485      C2486   1.401       .  A
C2486     Br2487   1.919       .  S
C2491      C2492   1.393       .  A
C2491      C2496   1.398       .  A
C2491      H2498   1.084       .  S
C2492      C2493   1.420       .  A
C2493      C2494   1.398       .  A
C2493     Br2500   1.921       .  S
C2494      C2495   1.394       .  A
C2494      H2499   1.084       .  S
C2495      C2496   1.421       .  A
C2496     Br2497   1.921       .  S
C2501      C2502   1.393       .  A
C2501      C2506   1.398       .  A
C2501      H2508   1.084       .  S
C2502      C2503   1.421       .  A
C2503      C2504   1.398       .  A
C2503     Br2510   1.921       .  S
C2504      C2505   1.393       .  A
C2504      H2509   1.084       .  S
C2505      C2506   1.422       .  A
C2506     Br2507   1.922       .  S
C2511      C2512   1.387       .  A
C2511      C2516   1.389       .  A
C2511      H2518   1.084       .  S
C2512      C2513   1.413       .  A
C2513      C2514   1.409       .  A
C2513     Br2520   1.918       .  S
C2514      C2515   1.403       .  A
C2514      H2519   1.083       .  S
C2515      C2516   1.427       .  A
C2516     Br2517   1.927       .  S
C2521      C2522   1.410       .  A
C2521      C2526   1.409       .  A
C2521      H2528   1.081       .  S
C2522      C2523   1.422       .  A
C2523      C2524   1.398       .  A
C2523     Br2530   1.924       .  S
C2524      C2525   1.400       .  A
C2524      H2529   1.084       .  S
C2525      C2526   1.408       .  A
C2526     Br2527   1.910       .  S
C2531      C2532   1.411       .  A
C2531      C2536   1.413       .  A
C2531      H2538   1.082       .  S
C2532      C2533   1.413       .  A
C2533      C2534   1.393       .  A
C2533     Br2540   1.926       .  S
C2534      C2535   1.406       .  A
C2534      H2539   1.085       .  S
C2535      C2536   1.407       .  A
C2536     Br2537   1.906       .  S
C2541      C2542   1.407       .  A
C2541      C2546   1.401       .  A
C2541      H2548   1.083       .  S
C2542      C2543   1.413       .  A
C2543      C2544   1.399       .  A
C2543     Br2550   1.917       .  S
C2544      C2545   1.402       .  A
C2544      H2549   1.084       .  S
C2545      C2546   1.404       .  A
C2546     Br2547   1.916       .  S
N2551      N2552   1.331       .  A
N2551      N2557   1.324       .  A
N2552      C2559   1.360       .  A
N2553      N2555   1.320       .  A
N2553      N2554   1.309       .  A
N2554      C2560   1.336       .  A
N2555      N2556   1.330       .  A
N2555     Mn2580   2.235   1_556  S
N2556      C2560   1.361       .  A
N2557      N2558   1.310       .  A
N2557     Mn2569   2.165       .  S
N2558      C2559   1.335       .  A
C2559      C3015   1.476       .  S
C2560      C2995   1.466       .  S
N2561      N2567   1.312       .  A
N2561      N2562   1.330       .  A
N2562      C2570   1.360       .  A
N2563      N2564   1.322       .  A
N2563      N2565   1.310       .  A
N2563     Mn2569   2.184       .  S
N2564      C2571   1.353       .  A
N2565      N2566   1.319       .  A
N2565     Mn2591   2.187       .  S
N2566      C2571   1.350       .  A
N2567      N2568   1.315       .  A
N2568      C2570   1.345       .  A
Mn2569    Cl2593   2.447       .  S
C2570      C3042   1.494       .  S
C2571      C3052   1.485       .  S
N2572      N2573   1.335       .  A
N2572      N2578   1.317       .  A
N2572     Mn2580   2.260   1_556  S
N2573      C2581   1.370       .  A
N2574      N2576   1.322       .  A
N2574      N2575   1.310       .  A
N2575      C2582   1.337       .  A
N2576      N2577   1.329       .  A
N2577      C2582   1.359       .  A
N2578      N2579   1.302       .  A
N2578     Mn2592   2.138   1_556  S
N2579      C2581   1.328       .  A
C2581      C2982   1.488       .  S
C2582      C3005   1.476       .  S
N2583      N2584   1.330       .  A
N2583      N2589   1.311       .  A
N2583     Mn2591   2.235       .  S
N2584      C2594   1.361       .  A
N2585      N2586   1.318       .  A
N2585      N2587   1.310       .  A
N2585     Mn2592   2.164   1_556  S
N2586      C2595   1.343       .  A
N2587      N2588   1.325       .  A
N2588      C2595   1.353       .  A
N2589      N2590   1.316       .  A
N2590      C2594   1.345       .  A
Mn2591    Cl2593   2.596       .  S
C2594      C3032   1.502       .  S
C2595      C3022   1.467       .  S
N2596      N2597   1.331       .  A
N2596      N2602   1.312       .  A
N2596     Mn2625   2.223       .  S
N2597      C2604   1.359       .  A
N2598      N2600   1.310       .  A
N2598      N2599   1.319       .  A
N2599      C2605   1.349       .  A
N2600      N2601   1.324       .  A
N2601      C2605   1.354       .  A
N2602      N2603   1.317       .  A
N2602     Mn2614   2.180       .  S
N2603      C2604   1.346       .  A
C2604      C2975   1.499       .  S
C2605      C2965   1.491       .  S
N2606      N2612   1.323       .  A
N2606      N2607   1.331       .  A
N2607      C2615   1.360       .  A
N2608      N2609   1.309       .  A
N2608      N2610   1.319       .  A
N2608     Mn2614   2.158       .  S
N2609      C2616   1.335       .  A
N2610      N2611   1.331       .  A
N2610     Mn2636   2.244       .  S
N2611      C2616   1.362       .  A
N2612      N2613   1.309       .  A
N2613      C2615   1.337       .  A
Mn2614    Cl2638   2.456       .  S
C2615      C2932   1.479       .  S
C2616      C2912   1.466       .  S
N2617      N2618   1.327       .  A
N2617      N2623   1.312       .  A
N2618      C2626   1.356       .  A
N2619      N2621   1.310       .  A
N2619      N2620   1.322       .  A
N2619     Mn2637   2.182       .  S
N2620      C2627   1.349       .  A
N2621      N2622   1.322       .  A
N2621     Mn2625   2.195       .  S
N2622      C2627   1.352       .  A
N2623      N2624   1.322       .  A
N2624      C2626   1.350       .  A
Mn2625    Cl2638   2.600       .  S
C2626      C2942   1.495       .  S
C2627      C2952   1.478       .  S
N2628      N2629   1.328       .  A
N2628      N2634   1.321       .  A
N2628     Mn2636   2.233       .  S
N2629      C2639   1.358       .  A
N2630      N2631   1.306       .  A
N2630      N2632   1.321       .  A
N2631      C2640   1.334       .  A
N2632      N2633   1.333       .  A
N2633      C2640   1.365       .  A
N2634      N2635   1.309       .  A
N2634     Mn2637   2.161       .  S
N2635      C2639   1.336       .  A
Mn2636    Cl2638   2.601       .  S
Mn2637    Cl2638   2.454       .  S
C2639      C2905   1.460       .  S
C2640      C2925   1.474       .  S
N2641      N2642   1.331       .  A
N2641      N2647   1.321       .  A
N2641     Mn2670   2.237       .  S
N2642      C2649   1.359       .  A
N2643      N2645   1.319       .  A
N2643      N2644   1.306       .  A
N2643     Mn2659   2.156       .  S
N2644      C2650   1.335       .  A
N2645      N2646   1.333       .  A
N2645     Mn2670   2.250       .  S
N2646      C2650   1.365       .  A
N2647      N2648   1.310       .  A
N2647     Mn2659   2.167       .  S
N2648      C2649   1.336       .  A
C2649      C3012   1.476       .  S
C2650      C2915   1.482       .  S
N2651      N2657   1.311       .  A
N2651      N2652   1.329       .  A
N2651     Mn3701   2.230       .  S
N2652      C2660   1.361       .  A
N2653      N2654   1.321       .  A
N2653      N2655   1.312       .  A
N2653     Mn2659   2.173       .  S
N2654      C2661   1.347       .  A
N2655      N2656   1.324       .  A
N2655     Mn3701   2.219       .  S
N2656      C2661   1.358       .  A
N2657      N2658   1.319       .  A
N2657     Mn2659   2.174       .  S
N2658      C2660   1.345       .  A
Mn2659    Cl3703   2.452       .  S
C2660      C2885   1.485       .  S
C2661      C2895   1.494       .  S
N2662      N2663   1.332       .  A
N2662      N2668   1.319       .  A
N2662     Mn3690   2.244       .  S
N2663      C2671   1.365       .  A
N2664      N2666   1.323       .  A
N2664      N2665   1.311       .  A
N2664     Mn2682   2.169       .  S
N2665      C2672   1.337       .  A
N2666      N2667   1.330       .  A
N2666     Mn3690   2.242       .  S
N2667      C2672   1.359       .  A
N2668      N2669   1.305       .  A
N2668     Mn2682   2.157       .  S
N2669      C2671   1.336       .  A
Mn2670     N3682   2.244   1_545  S
Mn2670     N3686   2.242   1_545  S
Mn2670    Cl3703   2.619       .  S
C2671      C2902   1.488       .  S
C2672      C3002   1.475       .  S
N2673      N2674   1.326       .  A
N2673      N2679   1.312       .  A
N2673     Mn2681   2.227       .  S
N2674      C2684   1.356       .  A
N2675      N2676   1.319       .  A
N2675      N2677   1.312       .  A
N2675     Mn2682   2.176       .  S
N2676      C2685   1.346       .  A
N2677      N2678   1.327       .  A
N2677     Mn2681   2.225       .  S
N2678      C2685   1.362       .  A
N2679      N2680   1.322       .  A
N2679     Mn2682   2.183       .  S
N2680      C2684   1.350       .  A
Mn2681     N3671   2.230       .  S
Mn2681     N3675   2.219       .  S
Mn2681    Cl2683   2.583       .  S
Mn2682    Cl2683   2.456       .  S
Cl2683    Mn3679   2.452       .  S
Cl2683    Mn3690   2.619       .  S
C2684      C2872   1.482       .  S
C2685      C2862   1.491       .  S
N2686      N2687   1.326       .  A
N2686      N2692   1.311       .  A
N2686     Mn2715   2.223       .  S
N2687      C2694   1.358       .  A
N2688      N2690   1.311       .  A
N2688      N2689   1.322       .  A
N2688     Mn2704   2.181       .  S
N2689      C2695   1.351       .  A
N2690      N2691   1.321       .  A
N2690     Mn2715   2.203       .  S
N2691      C2695   1.352       .  A
N2692      N2693   1.322       .  A
N2692     Mn2704   2.181       .  S
N2693      C2694   1.347       .  A
C2694      C2852   1.489       .  S
C2695      C2842   1.496       .  S
N2696      N2702   1.321       .  A
N2696      N2697   1.330       .  A
N2696     Mn2726   2.236       .  S
N2697      C2705   1.359       .  A
N2698      N2699   1.306       .  A
N2698      N2700   1.319       .  A
N2698     Mn2704   2.152       .  S
N2699      C2706   1.334       .  A
N2700      N2701   1.333       .  A
N2700     Mn2726   2.253       .  S
N2701      C2706   1.366       .  A
N2702      N2703   1.310       .  A
N2702     Mn2704   2.166       .  S
N2703      C2705   1.338       .  A
Mn2704    Cl2728   2.460       .  S
C2705      C2935   1.474       .  S
C2706      C2992   1.475       .  S
N2707      N2708   1.323       .  A
N2707      N2713   1.312       .  A
N2707     Mn3735   2.213       .  S
N2708      C2716   1.354       .  A
N2709      N2711   1.311       .  A
N2709      N2710   1.322       .  A
N2709     Mn2727   2.189       .  S
N2710      C2717   1.352       .  A
N2711      N2712   1.320       .  A
N2711     Mn3735   2.200       .  S
N2712      C2717   1.354       .  A
N2713      N2714   1.322       .  A
N2713     Mn2727   2.186       .  S
N2714      C2716   1.350       .  A
Mn2715     N3727   2.213   1_545  S
Mn2715     N3731   2.200   1_545  S
Mn2715    Cl2728   2.596       .  S
C2716      C2822   1.479       .  S
C2717      C2832   1.496       .  S
N2718      N2719   1.330       .  A
N2718      N2724   1.322       .  A
N2718     Mn3746   2.248       .  S
N2719      C2729   1.361       .  A
N2720      N2721   1.308       .  A
N2720      N2722   1.321       .  A
N2720     Mn2727   2.168       .  S
N2721      C2730   1.339       .  A
N2722      N2723   1.330       .  A
N2722     Mn3746   2.240       .  S
N2723      C2730   1.360       .  A
N2724      N2725   1.309       .  A
N2724     Mn2727   2.154       .  S
N2725      C2729   1.334       .  A
Mn2726     N3738   2.248   1_545  S
Mn2726     N3742   2.240   1_545  S
Mn2726    Cl2728   2.603       .  S
Mn2727    Cl3748   2.465       .  S
Cl2728    Mn3747   2.465   1_545  S
C2729      C2985   1.466       .  S
C2730      C2922   1.467       .  S
N2731      N2732   1.328       .  A
N2731      N2737   1.320       .  A
N2732      C2739   1.361       .  A
N2733      N2735   1.317       .  A
N2733      N2734   1.305       .  A
N2734      C2740   1.336       .  A
N2735      N2736   1.337       .  A
N2735     Mn2760   2.273       .  S
N2736      C2740   1.371       .  A
N2737      N2738   1.311       .  A
N2737     Mn2749   2.179       .  S
N2738      C2739   1.341       .  A
C2739      C3055   1.467       .  S
C2740      C2972   1.493       .  S
N2741      N2747   1.314       .  A
N2741      N2742   1.323       .  A
N2742      C2750   1.353       .  A
N2743      N2744   1.322       .  A
N2743      N2745   1.308       .  A
N2743     Mn2749   2.168       .  S
N2744      C2751   1.351       .  A
N2745      N2746   1.319       .  A
N2745     Mn2771   2.205       .  S
N2746      C2751   1.355       .  A
N2747      N2748   1.324       .  A
N2748      C2750   1.350       .  A
Mn2749    Cl2773   2.473       .  S
C2750      C2882   1.486       .  S
C2751      C2892   1.494       .  S
N2752      N2753   1.327       .  A
N2752      N2758   1.322       .  A
N2752     Mn2760   2.233       .  S
N2753      C2761   1.358       .  A
N2754      N2756   1.317       .  A
N2754      N2755   1.305       .  A
N2754     Mn2772   2.147       .  S
N2755      C2762   1.336       .  A
N2756      N2757   1.336       .  A
N2757      C2762   1.370       .  A
N2758      N2759   1.314       .  A
N2759      C2761   1.344       .  A
C2761      C2962   1.471       .  S
C2762      C3045   1.491       .  S
N2763      N2764   1.325       .  A
N2763      N2769   1.314       .  A
N2763     Mn2771   2.213       .  S
N2764      C2774   1.355       .  A
N2765      N2766   1.320       .  A
N2765      N2767   1.309       .  A
N2766      C2775   1.352       .  A
N2767      N2768   1.322       .  A
N2768      C2775   1.356       .  A
N2769      N2770   1.324       .  A
N2769     Mn2772   2.212       .  S
N2770      C2774   1.353       .  A
Mn2771    Cl2773   2.574       .  S
Mn2772    Cl2773   2.470       .  S
C2774      C2855   1.490       .  S
C2775      C2845   1.491       .  S
N2776      N2777   1.323       .  A
N2776      N2782   1.313       .  A
N2777      C2784   1.353       .  A
N2778      N2780   1.311       .  A
N2778      N2779   1.325       .  A
N2778     Mn2794   2.195       .  S
N2779      C2785   1.354       .  A
N2780      N2781   1.320       .  A
N2780     Mn2805   2.202       .  S
N2781      C2785   1.353       .  A
N2782      N2783   1.324       .  A
N2783      C2784   1.351       .  A
C2784      C2875   1.483       .  S
C2785      C2865   1.495       .  S
N2786      N2792   1.320       .  A
N2786      N2787   1.330       .  A
N2786     Mn2816   2.252       .  S
N2787      C2795   1.363       .  A
N2788      N2789   1.311       .  A
N2788      N2790   1.320       .  A
N2789      C2796   1.341       .  A
N2790      N2791   1.332       .  A
N2791      C2796   1.364       .  A
N2792      N2793   1.311       .  A
N2792     Mn2794   2.173       .  S
N2793      C2795   1.340       .  A
Mn2794    Cl2818   2.471       .  S
C2795      C2955   1.473       .  S
C2796      C3035   1.483       .  S
N2797      N2798   1.324       .  A
N2797      N2803   1.313       .  A
N2797     Mn2805   2.215       .  S
N2798      C2806   1.354       .  A
N2799      N2801   1.310       .  A
N2799      N2800   1.321       .  A
N2800      C2807   1.349       .  A
N2801      N2802   1.324       .  A
N2802      C2807   1.359       .  A
N2803      N2804   1.322       .  A
N2803     Mn2817   2.192       .  S
N2804      C2806   1.351       .  A
Mn2805    Cl2818   2.591       .  S
C2806      C2825   1.478       .  S
C2807      C2835   1.498       .  S
N2808      N2809   1.333       .  A
N2808      N2814   1.318       .  A
N2809      C2819   1.367       .  A
N2810      N2811   1.316       .  A
N2810      N2812   1.320       .  A
N2810     Mn2817   2.203       .  S
N2811      C2820   1.345       .  A
N2812      N2813   1.328       .  A
N2812     Mn2816   2.237       .  S
N2813      C2820   1.361       .  A
N2814      N2815   1.308       .  A
N2815      C2819   1.334       .  A
Mn2816    Cl2818   2.605       .  S
Mn2817    Cl2818   2.468       .  S
C2819      C3025   1.485       .  S
C2820      C2945   1.481       .  S
C2821      C2822   1.401       .  A
C2821      C2826   1.403       .  A
C2821      H2828   1.083       .  S
C2822      C2823   1.412       .  A
C2823      C2824   1.404       .  A
C2823     Br2830   1.919       .  S
C2824      C2825   1.401       .  A
C2824      H2829   1.083       .  S
C2825      C2826   1.411       .  A
C2826     Br2827   1.917       .  S
C2831      C2832   1.407       .  A
C2831      C2836   1.406       .  A
C2831      H2838   1.082       .  S
C2832      C2833   1.412       .  A
C2833      C2834   1.398       .  A
C2833     Br2840   1.908       .  S
C2834      C2835   1.399       .  A
C2834      H2839   1.073       .  S
C2835      C2836   1.419       .  A
C2836     Br2837   1.920       .  S
C2841      C2842   1.407       .  A
C2841      C2846   1.403       .  A
C2841      H2848   1.083       .  S
C2842      C2843   1.414       .  A
C2843      C2844   1.397       .  A
C2843     Br2850   1.909       .  S
C2844      C2845   1.402       .  A
C2844      H2849   1.082       .  S
C2845      C2846   1.415       .  A
C2846     Br2847   1.920       .  S
C2851      C2852   1.406       .  A
C2851      C2856   1.408       .  A
C2851      H2858   1.083       .  S
C2852      C2853   1.403       .  A
C2853      C2854   1.406       .  A
C2853     Br2860   1.908       .  S
C2854      C2855   1.407       .  A
C2854      H2859   1.083       .  S
C2855      C2856   1.412       .  A
C2856     Br2857   1.918       .  S
C2861      C2862   1.398       .  A
C2861      C2866   1.398       .  A
C2861      H2868   1.081       .  S
C2862      C2863   1.417       .  A
C2863      C2864   1.408       .  A
C2863     Br2870   1.919       .  S
C2864      C2865   1.407       .  A
C2864      H2869   1.083       .  S
C2865      C2866   1.409       .  A
C2866     Br2867   1.897       .  S
C2871      C2872   1.406       .  A
C2871      C2876   1.405       .  A
C2871      H2878   1.084       .  S
C2872      C2873   1.407       .  A
C2873      C2874   1.405       .  A
C2873     Br2880   1.916       .  S
C2874      C2875   1.406       .  A
C2874      H2879   1.084       .  S
C2875      C2876   1.408       .  A
C2876     Br2877   1.918       .  S
C2881      C2882   1.408       .  A
C2881      C2886   1.407       .  A
C2881      H2888   1.083       .  S
C2882      C2883   1.408       .  A
C2883      C2884   1.404       .  A
C2883     Br2890   1.918       .  S
C2884      C2885   1.406       .  A
C2884      H2889   1.084       .  S
C2885      C2886   1.405       .  A
C2886     Br2887   1.914       .  S
C2891      C2892   1.408       .  A
C2891      C2896   1.406       .  A
C2891      H2898   1.083       .  S
C2892      C2893   1.409       .  A
C2893      C2894   1.397       .  A
C2893     Br2900   1.905       .  S
C2894      C2895   1.400       .  A
C2894      H2899   1.078       .  S
C2895      C2896   1.416       .  A
C2896     Br2897   1.920       .  S
C2901      C2902   1.416       .  A
C2901      C2906   1.390       .  A
C2901      H2908   1.083       .  S
C2902      C2903   1.411       .  A
C2903      C2904   1.404       .  A
C2903     Br2910   1.918       .  S
C2904      C2905   1.409       .  A
C2904      H2909   1.083       .  S
C2905      C2906   1.393       .  A
C2906     Br2907   1.919       .  S
C2911      C2912   1.408       .  A
C2911      C2916   1.409       .  A
C2911      H2918   1.084       .  S
C2912      C2913   1.401       .  A
C2913      C2914   1.391       .  A
C2913     Br2920   1.920       .  S
C2914      C2915   1.408       .  A
C2914      H2919   1.084       .  S
C2915      C2916   1.413       .  A
C2916     Br2917   1.917       .  S
C2921      C2922   1.407       .  A
C2921      C2926   1.410       .  A
C2921      H2928   1.083       .  S
C2922      C2923   1.402       .  A
C2923      C2924   1.387       .  A
C2923     Br2930   1.923       .  S
C2924      C2925   1.403       .  A
C2924      H2929   1.078       .  S
C2925      C2926   1.411       .  A
C2926     Br2927   1.917       .  S
C2931      C2932   1.415       .  A
C2931      C2936   1.398       .  A
C2931      H2938   1.084       .  S
C2932      C2933   1.401       .  A
C2933      C2934   1.399       .  A
C2933     Br2940   1.916       .  S
C2934      C2935   1.413       .  A
C2934      H2939   1.084       .  S
C2935      C2936   1.399       .  A
C2936     Br2937   1.917       .  S
C2941      C2942   1.402       .  A
C2941      C2946   1.403       .  A
C2941      H2948   1.081       .  S
C2942      C2943   1.417       .  A
C2943      C2944   1.405       .  A
C2943     Br2950   1.910       .  S
C2944      C2945   1.398       .  A
C2944      H2949   1.083       .  S
C2945      C2946   1.406       .  A
C2946     Br2947   1.899       .  S
C2951      C2952   1.408       .  A
C2951      C2956   1.406       .  A
C2951      H2958   1.083       .  S
C2952      C2953   1.403       .  A
C2953      C2954   1.397       .  A
C2953     Br2960   1.915       .  S
C2954      C2955   1.407       .  A
C2954      H2959   1.084       .  S
C2955      C2956   1.406       .  A
C2956     Br2957   1.916       .  S
C2961      C2962   1.404       .  A
C2961      C2966   1.404       .  A
C2961      H2968   1.084       .  S
C2962      C2963   1.404       .  A
C2963      C2964   1.398       .  A
C2963     Br2970   1.918       .  S
C2964      C2965   1.409       .  A
C2964      H2969   1.083       .  S
C2965      C2966   1.414       .  A
C2966     Br2967   1.913       .  S
C2971      C2972   1.406       .  A
C2971      C2976   1.395       .  A
C2971      H2978   1.085       .  S
C2972      C2973   1.408       .  A
C2973      C2974   1.415       .  A
C2973     Br2980   1.908       .  S
C2974      C2975   1.414       .  A
C2974      H2979   1.083       .  S
C2975      C2976   1.415       .  A
C2976     Br2977   1.926       .  S
C2981      C2982   1.399       .  A
C2981      C2986   1.401       .  A
C2981      H2988   1.083       .  S
C2982      C2983   1.433       .  A
C2983      C2984   1.394       .  A
C2983     Br2990   1.930       .  S
C2984      C2985   1.387       .  A
C2984      H2989   1.084       .  S
C2985      C2986   1.416       .  A
C2986     Br2987   1.915       .  S
C2991      C2992   1.406       .  A
C2991      C2996   1.391       .  A
C2991      H2998   1.085       .  S
C2992      C2993   1.412       .  A
C2993      C2994   1.409       .  A
C2993     Br3000   1.917       .  S
C2994      C2995   1.408       .  A
C2994      H2999   1.084       .  S
C2995      C2996   1.401       .  A
C2996     Br2997   1.919       .  S
C3001      C3002   1.393       .  A
C3001      C3006   1.398       .  A
C3001      H3008   1.084       .  S
C3002      C3003   1.420       .  A
C3003      C3004   1.398       .  A
C3003     Br3010   1.921       .  S
C3004      C3005   1.394       .  A
C3004      H3009   1.084       .  S
C3005      C3006   1.421       .  A
C3006     Br3007   1.921       .  S
C3011      C3012   1.393       .  A
C3011      C3016   1.398       .  A
C3011      H3018   1.084       .  S
C3012      C3013   1.421       .  A
C3013      C3014   1.398       .  A
C3013     Br3020   1.921       .  S
C3014      C3015   1.393       .  A
C3014      H3019   1.084       .  S
C3015      C3016   1.422       .  A
C3016     Br3017   1.922       .  S
C3021      C3022   1.387       .  A
C3021      C3026   1.389       .  A
C3021      H3028   1.084       .  S
C3022      C3023   1.413       .  A
C3023      C3024   1.409       .  A
C3023     Br3030   1.918       .  S
C3024      C3025   1.403       .  A
C3024      H3029   1.083       .  S
C3025      C3026   1.427       .  A
C3026     Br3027   1.927       .  S
C3031      C3032   1.410       .  A
C3031      C3036   1.409       .  A
C3031      H3038   1.081       .  S
C3032      C3033   1.422       .  A
C3033      C3034   1.398       .  A
C3033     Br3040   1.924       .  S
C3034      C3035   1.400       .  A
C3034      H3039   1.084       .  S
C3035      C3036   1.408       .  A
C3036     Br3037   1.910       .  S
C3041      C3042   1.411       .  A
C3041      C3046   1.413       .  A
C3041      H3048   1.082       .  S
C3042      C3043   1.413       .  A
C3043      C3044   1.393       .  A
C3043     Br3050   1.926       .  S
C3044      C3045   1.406       .  A
C3044      H3049   1.085       .  S
C3045      C3046   1.407       .  A
C3046     Br3047   1.906       .  S
C3051      C3052   1.407       .  A
C3051      C3056   1.401       .  A
C3051      H3058   1.083       .  S
C3052      C3053   1.413       .  A
C3053      C3054   1.399       .  A
C3053     Br3060   1.917       .  S
C3054      C3055   1.402       .  A
C3054      H3059   1.084       .  S
C3055      C3056   1.404       .  A
C3056     Br3057   1.916       .  S
N3061      N3062   1.331       .  A
N3061      N3067   1.324       .  A
N3061     Mn3600   2.251       .  S
N3062      C3069   1.360       .  A
N3063      N3065   1.320       .  A
N3063      N3064   1.309       .  A
N3063     Mn3589   2.171       .  S
N3064      C3070   1.336       .  A
N3065      N3066   1.330       .  A
N3065     Mn3090   2.235       .  S
N3066      C3070   1.361       .  A
N3067      N3068   1.310       .  A
N3067     Mn3079   2.165       .  S
N3068      C3069   1.335       .  A
C3069      C3525   1.476       .  S
C3070      C3505   1.466       .  S
N3071      N3077   1.312       .  A
N3071      N3072   1.330       .  A
N3071     Mn3611   2.218       .  S
N3072      C3080   1.360       .  A
N3073      N3074   1.322       .  A
N3073      N3075   1.310       .  A
N3073     Mn3079   2.184       .  S
N3074      C3081   1.353       .  A
N3075      N3076   1.319       .  A
N3075     Mn3101   2.187       .  S
N3076      C3081   1.350       .  A
N3077      N3078   1.315       .  A
N3077     Mn3589   2.178       .  S
N3078      C3080   1.345       .  A
Mn3079     N3573   2.171   1_554  S
Mn3079     N3587   2.178   1_554  S
Mn3079    Cl3103   2.447       .  S
C3080      C3552   1.494       .  S
C3081      C3562   1.485       .  S
N3082      N3083   1.335       .  A
N3082      N3088   1.317       .  A
N3082     Mn3090   2.260       .  S
N3083      C3091   1.370       .  A
N3084      N3086   1.322       .  A
N3084      N3085   1.310       .  A
N3084     Mn3612   2.170       .  S
N3085      C3092   1.337       .  A
N3086      N3087   1.329       .  A
N3086     Mn3600   2.237       .  S
N3087      C3092   1.359       .  A
N3088      N3089   1.302       .  A
N3088     Mn3102   2.138       .  S
N3089      C3091   1.328       .  A
Mn3090     N3571   2.251       .  S
Mn3090     N3596   2.237       .  S
Mn3090    Cl3613   2.604       .  S
C3091      C3492   1.488       .  S
C3092      C3515   1.476       .  S
N3093      N3094   1.330       .  A
N3093      N3099   1.311       .  A
N3093     Mn3101   2.235       .  S
N3094      C3104   1.361       .  A
N3095      N3096   1.318       .  A
N3095      N3097   1.310       .  A
N3095     Mn3102   2.164       .  S
N3096      C3105   1.343       .  A
N3097      N3098   1.325       .  A
N3097     Mn3611   2.195       .  S
N3098      C3105   1.353       .  A
N3099      N3100   1.316       .  A
N3099     Mn3612   2.166       .  S
N3100      C3104   1.345       .  A
Mn3101     N3581   2.218   1_554  S
Mn3101     N3607   2.195   1_554  S
Mn3101    Cl3103   2.596       .  S
Mn3102     N3594   2.170       .  S
Mn3102     N3609   2.166       .  S
Mn3102    Cl3613   2.447       .  S
Cl3103    Mn3600   2.604       .  S
Cl3103    Mn3612   2.447       .  S
C3104      C3542   1.502       .  S
C3105      C3532   1.467       .  S
N3106      N3107   1.331       .  A
N3106      N3112   1.312       .  A
N3106     Mn3135   2.223       .  S
N3107      C3114   1.359       .  A
N3108      N3110   1.310       .  A
N3108      N3109   1.319       .  A
N3108     Mn3634   2.169       .  S
N3109      C3115   1.349       .  A
N3110      N3111   1.324       .  A
N3110     Mn3645   2.207       .  S
N3111      C3115   1.354       .  A
N3112      N3113   1.317       .  A
N3112     Mn3124   2.180       .  S
N3113      C3114   1.346       .  A
C3114      C3485   1.499       .  S
C3115      C3475   1.491       .  S
N3116      N3122   1.323       .  A
N3116      N3117   1.331       .  A
N3116     Mn3656   2.244       .  S
N3117      C3125   1.360       .  A
N3118      N3119   1.309       .  A
N3118      N3120   1.319       .  A
N3118     Mn3124   2.158       .  S
N3119      C3126   1.335       .  A
N3120      N3121   1.331       .  A
N3120     Mn3146   2.244       .  S
N3121      C3126   1.362       .  A
N3122      N3123   1.309       .  A
N3122     Mn3634   2.168       .  S
N3123      C3125   1.337       .  A
Mn3124     N3618   2.169   1_554  S
Mn3124     N3632   2.168   1_554  S
Mn3124    Cl3148   2.456       .  S
C3125      C3442   1.479       .  S
C3126      C3422   1.466       .  S
N3127      N3128   1.327       .  A
N3127      N3133   1.312       .  A
N3127     Mn3645   2.215       .  S
N3128      C3136   1.356       .  A
N3129      N3131   1.310       .  A
N3129      N3130   1.322       .  A
N3129     Mn3147   2.182       .  S
N3130      C3137   1.349       .  A
N3131      N3132   1.322       .  A
N3131     Mn3135   2.195       .  S
N3132      C3137   1.352       .  A
N3133      N3134   1.322       .  A
N3133     Mn3657   2.195       .  S
N3134      C3136   1.350       .  A
Mn3135     N3620   2.207   1_554  S
Mn3135     N3637   2.215   1_554  S
Mn3135    Cl3148   2.600       .  S
C3136      C3452   1.495       .  S
C3137      C3462   1.478       .  S
N3138      N3139   1.328       .  A
N3138      N3144   1.321       .  A
N3138     Mn3146   2.233       .  S
N3139      C3149   1.358       .  A
N3140      N3141   1.306       .  A
N3140      N3142   1.321       .  A
N3140     Mn3657   2.150       .  S
N3141      C3150   1.334       .  A
N3142      N3143   1.333       .  A
N3142     Mn3656   2.258       .  S
N3143      C3150   1.365       .  A
N3144      N3145   1.309       .  A
N3144     Mn3147   2.161       .  S
N3145      C3149   1.336       .  A
Mn3146     N3626   2.244   1_554  S
Mn3146     N3652   2.258   1_554  S
Mn3146    Cl3148   2.601       .  S
Mn3147     N3643   2.195   1_554  S
Mn3147     N3650   2.150   1_554  S
Mn3147    Cl3148   2.454       .  S
C3149      C3415   1.460       .  S
C3150      C3435   1.474       .  S
N3151      N3152   1.331       .  A
N3151      N3157   1.321       .  A
N3151     Mn3180   2.237       .  S
N3152      C3159   1.359       .  A
N3153      N3155   1.319       .  A
N3153      N3154   1.306       .  A
N3153     Mn3169   2.156       .  S
N3154      C3160   1.335       .  A
N3155      N3156   1.333       .  A
N3155     Mn3180   2.250       .  S
N3156      C3160   1.365       .  A
N3157      N3158   1.310       .  A
N3157     Mn3169   2.167       .  S
N3158      C3159   1.336       .  A
C3159      C3522   1.476       .  S
C3160      C3425   1.482       .  S
N3161      N3167   1.311       .  A
N3161      N3162   1.329       .  A
N3162      C3170   1.361       .  A
N3163      N3164   1.321       .  A
N3163      N3165   1.312       .  A
N3163     Mn3169   2.173       .  S
N3164      C3171   1.347       .  A
N3165      N3166   1.324       .  A
N3166      C3171   1.358       .  A
N3167      N3168   1.319       .  A
N3167     Mn3169   2.174       .  S
N3168      C3170   1.345       .  A
C3170      C3395   1.485       .  S
C3171      C3405   1.494       .  S
N3172      N3173   1.332       .  A
N3172      N3178   1.319       .  A
N3173      C3181   1.365       .  A
N3174      N3176   1.323       .  A
N3174      N3175   1.311       .  A
N3174     Mn3192   2.169       .  S
N3175      C3182   1.337       .  A
N3176      N3177   1.330       .  A
N3177      C3182   1.359       .  A
N3178      N3179   1.305       .  A
N3178     Mn3192   2.157       .  S
N3179      C3181   1.336       .  A
C3181      C3412   1.488       .  S
C3182      C3512   1.475       .  S
N3183      N3184   1.326       .  A
N3183      N3189   1.312       .  A
N3183     Mn3191   2.227   1_565  S
N3184      C3194   1.356       .  A
N3185      N3186   1.319       .  A
N3185      N3187   1.312       .  A
N3185     Mn3192   2.176       .  S
N3186      C3195   1.346       .  A
N3187      N3188   1.327       .  A
N3187     Mn3191   2.225   1_565  S
N3188      C3195   1.362       .  A
N3189      N3190   1.322       .  A
N3189     Mn3192   2.183       .  S
N3190      C3194   1.350       .  A
Mn3191    Cl3193   2.583       .  S
Mn3192    Cl3193   2.456   1_565  S
C3194      C3382   1.482       .  S
C3195      C3372   1.491       .  S
N3196      N3197   1.326       .  A
N3196      N3202   1.311       .  A
N3196     Mn3225   2.223       .  S
N3197      C3204   1.358       .  A
N3198      N3200   1.311       .  A
N3198      N3199   1.322       .  A
N3198     Mn3214   2.181       .  S
N3199      C3205   1.351       .  A
N3200      N3201   1.321       .  A
N3200     Mn3225   2.203       .  S
N3201      C3205   1.352       .  A
N3202      N3203   1.322       .  A
N3202     Mn3214   2.181       .  S
N3203      C3204   1.347       .  A
C3204      C3362   1.489       .  S
C3205      C3352   1.496       .  S
N3206      N3212   1.321       .  A
N3206      N3207   1.330       .  A
N3206     Mn3236   2.236       .  S
N3207      C3215   1.359       .  A
N3208      N3209   1.306       .  A
N3208      N3210   1.319       .  A
N3208     Mn3214   2.152       .  S
N3209      C3216   1.334       .  A
N3210      N3211   1.333       .  A
N3210     Mn3236   2.253       .  S
N3211      C3216   1.366       .  A
N3212      N3213   1.310       .  A
N3212     Mn3214   2.166       .  S
N3213      C3215   1.338       .  A
Mn3214    Cl3238   2.460       .  S
C3215      C3445   1.474       .  S
C3216      C3502   1.475       .  S
N3217      N3218   1.323       .  A
N3217      N3223   1.312       .  A
N3218      C3226   1.354       .  A
N3219      N3221   1.311       .  A
N3219      N3220   1.322       .  A
N3219     Mn3237   2.189       .  S
N3220      C3227   1.352       .  A
N3221      N3222   1.320       .  A
N3222      C3227   1.354       .  A
N3223      N3224   1.322       .  A
N3223     Mn3237   2.186       .  S
N3224      C3226   1.350       .  A
Mn3225    Cl3238   2.596       .  S
C3226      C3332   1.479       .  S
C3227      C3342   1.496       .  S
N3228      N3229   1.330       .  A
N3228      N3234   1.322       .  A
N3229      C3239   1.361       .  A
N3230      N3231   1.308       .  A
N3230      N3232   1.321       .  A
N3230     Mn3237   2.168       .  S
N3231      C3240   1.339       .  A
N3232      N3233   1.330       .  A
N3233      C3240   1.360       .  A
N3234      N3235   1.309       .  A
N3234     Mn3237   2.154       .  S
N3235      C3239   1.334       .  A
Mn3236    Cl3238   2.603       .  S
C3239      C3495   1.466       .  S
C3240      C3432   1.467       .  S
N3241      N3242   1.328       .  A
N3241      N3247   1.320       .  A
N3242      C3249   1.361       .  A
N3243      N3245   1.317       .  A
N3243      N3244   1.305       .  A
N3244      C3250   1.336       .  A
N3245      N3246   1.337       .  A
N3245     Mn3270   2.273       .  S
N3246      C3250   1.371       .  A
N3247      N3248   1.311       .  A
N3247     Mn3259   2.179       .  S
N3248      C3249   1.341       .  A
C3249      C3565   1.467       .  S
C3250      C3482   1.493       .  S
N3251      N3257   1.314       .  A
N3251      N3252   1.323       .  A
N3252      C3260   1.353       .  A
N3253      N3254   1.322       .  A
N3253      N3255   1.308       .  A
N3253     Mn3259   2.168       .  S
N3254      C3261   1.351       .  A
N3255      N3256   1.319       .  A
N3255     Mn3281   2.205       .  S
N3256      C3261   1.355       .  A
N3257      N3258   1.324       .  A
N3258      C3260   1.350       .  A
Mn3259    Cl3283   2.473       .  S
C3260      C3392   1.486       .  S
C3261      C3402   1.494       .  S
N3262      N3263   1.327       .  A
N3262      N3268   1.322       .  A
N3262     Mn3270   2.233       .  S
N3263      C3271   1.358       .  A
N3264      N3266   1.317       .  A
N3264      N3265   1.305       .  A
N3264     Mn3282   2.147       .  S
N3265      C3272   1.336       .  A
N3266      N3267   1.336       .  A
N3267      C3272   1.370       .  A
N3268      N3269   1.314       .  A
N3269      C3271   1.344       .  A
C3271      C3472   1.471       .  S
C3272      C3555   1.491       .  S
N3273      N3274   1.325       .  A
N3273      N3279   1.314       .  A
N3273     Mn3281   2.213       .  S
N3274      C3284   1.355       .  A
N3275      N3276   1.320       .  A
N3275      N3277   1.309       .  A
N3276      C3285   1.352       .  A
N3277      N3278   1.322       .  A
N3278      C3285   1.356       .  A
N3279      N3280   1.324       .  A
N3279     Mn3282   2.212       .  S
N3280      C3284   1.353       .  A
Mn3281    Cl3283   2.574       .  S
Mn3282    Cl3283   2.470       .  S
C3284      C3365   1.490       .  S
C3285      C3355   1.491       .  S
N3286      N3287   1.323       .  A
N3286      N3292   1.313       .  A
N3287      C3294   1.353       .  A
N3288      N3290   1.311       .  A
N3288      N3289   1.325       .  A
N3288     Mn3304   2.195       .  S
N3289      C3295   1.354       .  A
N3290      N3291   1.320       .  A
N3290     Mn3315   2.202       .  S
N3291      C3295   1.353       .  A
N3292      N3293   1.324       .  A
N3293      C3294   1.351       .  A
C3294      C3385   1.483       .  S
C3295      C3375   1.495       .  S
N3296      N3302   1.320       .  A
N3296      N3297   1.330       .  A
N3296     Mn3326   2.252       .  S
N3297      C3305   1.363       .  A
N3298      N3299   1.311       .  A
N3298      N3300   1.320       .  A
N3299      C3306   1.341       .  A
N3300      N3301   1.332       .  A
N3301      C3306   1.364       .  A
N3302      N3303   1.311       .  A
N3302     Mn3304   2.173       .  S
N3303      C3305   1.340       .  A
Mn3304    Cl3328   2.471       .  S
C3305      C3465   1.473       .  S
C3306      C3545   1.483       .  S
N3307      N3308   1.324       .  A
N3307      N3313   1.313       .  A
N3307     Mn3315   2.215       .  S
N3308      C3316   1.354       .  A
N3309      N3311   1.310       .  A
N3309      N3310   1.321       .  A
N3310      C3317   1.349       .  A
N3311      N3312   1.324       .  A
N3312      C3317   1.359       .  A
N3313      N3314   1.322       .  A
N3313     Mn3327   2.192       .  S
N3314      C3316   1.351       .  A
Mn3315    Cl3328   2.591       .  S
C3316      C3335   1.478       .  S
C3317      C3345   1.498       .  S
N3318      N3319   1.333       .  A
N3318      N3324   1.318       .  A
N3319      C3329   1.367       .  A
N3320      N3321   1.316       .  A
N3320      N3322   1.320       .  A
N3320     Mn3327   2.203       .  S
N3321      C3330   1.345       .  A
N3322      N3323   1.328       .  A
N3322     Mn3326   2.237       .  S
N3323      C3330   1.361       .  A
N3324      N3325   1.308       .  A
N3325      C3329   1.334       .  A
Mn3326    Cl3328   2.605       .  S
Mn3327    Cl3328   2.468       .  S
C3329      C3535   1.485       .  S
C3330      C3455   1.481       .  S
C3331      C3332   1.401       .  A
C3331      C3336   1.403       .  A
C3331      H3338   1.083       .  S
C3332      C3333   1.412       .  A
C3333      C3334   1.404       .  A
C3333     Br3340   1.919       .  S
C3334      C3335   1.401       .  A
C3334      H3339   1.083       .  S
C3335      C3336   1.411       .  A
C3336     Br3337   1.917       .  S
C3341      C3342   1.407       .  A
C3341      C3346   1.406       .  A
C3341      H3348   1.082       .  S
C3342      C3343   1.412       .  A
C3343      C3344   1.398       .  A
C3343     Br3350   1.908       .  S
C3344      C3345   1.399       .  A
C3344      H3349   1.073       .  S
C3345      C3346   1.419       .  A
C3346     Br3347   1.920       .  S
C3351      C3352   1.407       .  A
C3351      C3356   1.403       .  A
C3351      H3358   1.083       .  S
C3352      C3353   1.414       .  A
C3353      C3354   1.397       .  A
C3353     Br3360   1.909       .  S
C3354      C3355   1.402       .  A
C3354      H3359   1.082       .  S
C3355      C3356   1.415       .  A
C3356     Br3357   1.920       .  S
C3361      C3362   1.406       .  A
C3361      C3366   1.408       .  A
C3361      H3368   1.083       .  S
C3362      C3363   1.403       .  A
C3363      C3364   1.406       .  A
C3363     Br3370   1.908       .  S
C3364      C3365   1.407       .  A
C3364      H3369   1.083       .  S
C3365      C3366   1.412       .  A
C3366     Br3367   1.918       .  S
C3371      C3372   1.398       .  A
C3371      C3376   1.398       .  A
C3371      H3378   1.081       .  S
C3372      C3373   1.417       .  A
C3373      C3374   1.408       .  A
C3373     Br3380   1.919       .  S
C3374      C3375   1.407       .  A
C3374      H3379   1.083       .  S
C3375      C3376   1.409       .  A
C3376     Br3377   1.897   1_565  S
C3381      C3382   1.406       .  A
C3381      C3386   1.405       .  A
C3381      H3388   1.084       .  S
C3382      C3383   1.407       .  A
C3383      C3384   1.405       .  A
C3383     Br3390   1.916       .  S
C3384      C3385   1.406       .  A
C3384      H3389   1.084       .  S
C3385      C3386   1.408       .  A
C3386     Br3387   1.918       .  S
C3391      C3392   1.408       .  A
C3391      C3396   1.407       .  A
C3391      H3398   1.083       .  S
C3392      C3393   1.408       .  A
C3393      C3394   1.404       .  A
C3393     Br3400   1.918       .  S
C3394      C3395   1.406       .  A
C3394      H3399   1.084       .  S
C3395      C3396   1.405       .  A
C3396     Br3397   1.914       .  S
C3401      C3402   1.408       .  A
C3401      C3406   1.406       .  A
C3401      H3408   1.083       .  S
C3402      C3403   1.409       .  A
C3403      C3404   1.397       .  A
C3403     Br3410   1.905       .  S
C3404      C3405   1.400       .  A
C3404      H3409   1.078       .  S
C3405      C3406   1.416       .  A
C3406     Br3407   1.920       .  S
C3411      C3412   1.416       .  A
C3411      C3416   1.390       .  A
C3411      H3418   1.083       .  S
C3412      C3413   1.411       .  A
C3413      C3414   1.404       .  A
C3413     Br3420   1.918       .  S
C3414      C3415   1.409       .  A
C3414      H3419   1.083       .  S
C3415      C3416   1.393       .  A
C3416     Br3417   1.919       .  S
C3421      C3422   1.408       .  A
C3421      C3426   1.409       .  A
C3421      H3428   1.084       .  S
C3422      C3423   1.401       .  A
C3423      C3424   1.391       .  A
C3423     Br3430   1.920       .  S
C3424      C3425   1.408       .  A
C3424      H3429   1.084       .  S
C3425      C3426   1.413       .  A
C3426     Br3427   1.917       .  S
C3431      C3432   1.407       .  A
C3431      C3436   1.410       .  A
C3431      H3438   1.083       .  S
C3432      C3433   1.402       .  A
C3433      C3434   1.387       .  A
C3433     Br3440   1.923       .  S
C3434      C3435   1.403       .  A
C3434      H3439   1.078       .  S
C3435      C3436   1.411       .  A
C3436     Br3437   1.917       .  S
C3441      C3442   1.415       .  A
C3441      C3446   1.398       .  A
C3441      H3448   1.084       .  S
C3442      C3443   1.401       .  A
C3443      C3444   1.399       .  A
C3443     Br3450   1.916       .  S
C3444      C3445   1.413       .  A
C3444      H3449   1.084       .  S
C3445      C3446   1.399       .  A
C3446     Br3447   1.917       .  S
C3451      C3452   1.402       .  A
C3451      C3456   1.403       .  A
C3451      H3458   1.081       .  S
C3452      C3453   1.417       .  A
C3453      C3454   1.405       .  A
C3453     Br3460   1.910       .  S
C3454      C3455   1.398       .  A
C3454      H3459   1.083       .  S
C3455      C3456   1.406       .  A
C3456     Br3457   1.899       .  S
C3461      C3462   1.408       .  A
C3461      C3466   1.406       .  A
C3461      H3468   1.083       .  S
C3462      C3463   1.403       .  A
C3463      C3464   1.397       .  A
C3463     Br3470   1.915       .  S
C3464      C3465   1.407       .  A
C3464      H3469   1.084       .  S
C3465      C3466   1.406       .  A
C3466     Br3467   1.916       .  S
C3471      C3472   1.404       .  A
C3471      C3476   1.404       .  A
C3471      H3478   1.084       .  S
C3472      C3473   1.404       .  A
C3473      C3474   1.398       .  A
C3473     Br3480   1.918       .  S
C3474      C3475   1.409       .  A
C3474      H3479   1.083       .  S
C3475      C3476   1.414       .  A
C3476     Br3477   1.913       .  S
C3481      C3482   1.406       .  A
C3481      C3486   1.395       .  A
C3481      H3488   1.085       .  S
C3482      C3483   1.408       .  A
C3483      C3484   1.415       .  A
C3483     Br3490   1.908       .  S
C3484      C3485   1.414       .  A
C3484      H3489   1.083       .  S
C3485      C3486   1.415       .  A
C3486     Br3487   1.926       .  S
C3491      C3492   1.399       .  A
C3491      C3496   1.401       .  A
C3491      H3498   1.083       .  S
C3492      C3493   1.433       .  A
C3493      C3494   1.394       .  A
C3493     Br3500   1.930       .  S
C3494      C3495   1.387       .  A
C3494      H3499   1.084       .  S
C3495      C3496   1.416       .  A
C3496     Br3497   1.915       .  S
C3501      C3502   1.406       .  A
C3501      C3506   1.391       .  A
C3501      H3508   1.085       .  S
C3502      C3503   1.412       .  A
C3503      C3504   1.409       .  A
C3503     Br3510   1.917       .  S
C3504      C3505   1.408       .  A
C3504      H3509   1.084       .  S
C3505      C3506   1.401       .  A
C3506     Br3507   1.919       .  S
C3511      C3512   1.393       .  A
C3511      C3516   1.398       .  A
C3511      H3518   1.084       .  S
C3512      C3513   1.420       .  A
C3513      C3514   1.398       .  A
C3513     Br3520   1.921       .  S
C3514      C3515   1.394       .  A
C3514      H3519   1.084       .  S
C3515      C3516   1.421       .  A
C3516     Br3517   1.921       .  S
C3521      C3522   1.393       .  A
C3521      C3526   1.398       .  A
C3521      H3528   1.084       .  S
C3522      C3523   1.421       .  A
C3523      C3524   1.398       .  A
C3523     Br3530   1.921       .  S
C3524      C3525   1.393       .  A
C3524      H3529   1.084       .  S
C3525      C3526   1.422       .  A
C3526     Br3527   1.922       .  S
C3531      C3532   1.387       .  A
C3531      C3536   1.389       .  A
C3531      H3538   1.084       .  S
C3532      C3533   1.413       .  A
C3533      C3534   1.409       .  A
C3533     Br3540   1.918       .  S
C3534      C3535   1.403       .  A
C3534      H3539   1.083       .  S
C3535      C3536   1.427       .  A
C3536     Br3537   1.927       .  S
C3541      C3542   1.410       .  A
C3541      C3546   1.409       .  A
C3541      H3548   1.081       .  S
C3542      C3543   1.422       .  A
C3543      C3544   1.398       .  A
C3543     Br3550   1.924       .  S
C3544      C3545   1.400       .  A
C3544      H3549   1.084       .  S
C3545      C3546   1.408       .  A
C3546     Br3547   1.910       .  S
C3551      C3552   1.411       .  A
C3551      C3556   1.413       .  A
C3551      H3558   1.082       .  S
C3552      C3553   1.413       .  A
C3553      C3554   1.393       .  A
C3553     Br3560   1.926       .  S
C3554      C3555   1.406       .  A
C3554      H3559   1.085       .  S
C3555      C3556   1.407       .  A
C3556     Br3557   1.906       .  S
C3561      C3562   1.407       .  A
C3561      C3566   1.401       .  A
C3561      H3568   1.083       .  S
C3562      C3563   1.413       .  A
C3563      C3564   1.399       .  A
C3563     Br3570   1.917       .  S
C3564      C3565   1.402       .  A
C3564      H3569   1.084       .  S
C3565      C3566   1.404       .  A
C3566     Br3567   1.916       .  S
N3571      N3572   1.331       .  A
N3571      N3577   1.324       .  A
N3572      C3579   1.360       .  A
N3573      N3575   1.320       .  A
N3573      N3574   1.309       .  A
N3574      C3580   1.336       .  A
N3575      N3576   1.330       .  A
N3575     Mn3600   2.235   1_556  S
N3576      C3580   1.361       .  A
N3577      N3578   1.310       .  A
N3577     Mn3589   2.165       .  S
N3578      C3579   1.335       .  A
C3579      C4035   1.476       .  S
C3580      C4015   1.466       .  S
N3581      N3587   1.312       .  A
N3581      N3582   1.330       .  A
N3582      C3590   1.360       .  A
N3583      N3584   1.322       .  A
N3583      N3585   1.310       .  A
N3583     Mn3589   2.184       .  S
N3584      C3591   1.353       .  A
N3585      N3586   1.319       .  A
N3585     Mn3611   2.187       .  S
N3586      C3591   1.350       .  A
N3587      N3588   1.315       .  A
N3588      C3590   1.345       .  A
Mn3589    Cl3613   2.447       .  S
C3590      C4062   1.494       .  S
C3591      C4072   1.485       .  S
N3592      N3593   1.335       .  A
N3592      N3598   1.317       .  A
N3592     Mn3600   2.260   1_556  S
N3593      C3601   1.370       .  A
N3594      N3596   1.322       .  A
N3594      N3595   1.310       .  A
N3595      C3602   1.337       .  A
N3596      N3597   1.329       .  A
N3597      C3602   1.359       .  A
N3598      N3599   1.302       .  A
N3598     Mn3612   2.138   1_556  S
N3599      C3601   1.328       .  A
C3601      C4002   1.488       .  S
C3602      C4025   1.476       .  S
N3603      N3604   1.330       .  A
N3603      N3609   1.311       .  A
N3603     Mn3611   2.235       .  S
N3604      C3614   1.361       .  A
N3605      N3606   1.318       .  A
N3605      N3607   1.310       .  A
N3605     Mn3612   2.164   1_556  S
N3606      C3615   1.343       .  A
N3607      N3608   1.325       .  A
N3608      C3615   1.353       .  A
N3609      N3610   1.316       .  A
N3610      C3614   1.345       .  A
Mn3611    Cl3613   2.596       .  S
C3614      C4052   1.502       .  S
C3615      C4042   1.467       .  S
N3616      N3617   1.331       .  A
N3616      N3622   1.312       .  A
N3616     Mn3645   2.223       .  S
N3617      C3624   1.359       .  A
N3618      N3620   1.310       .  A
N3618      N3619   1.319       .  A
N3619      C3625   1.349       .  A
N3620      N3621   1.324       .  A
N3621      C3625   1.354       .  A
N3622      N3623   1.317       .  A
N3622     Mn3634   2.180       .  S
N3623      C3624   1.346       .  A
C3624      C3995   1.499       .  S
C3625      C3985   1.491       .  S
N3626      N3632   1.323       .  A
N3626      N3627   1.331       .  A
N3627      C3635   1.360       .  A
N3628      N3629   1.309       .  A
N3628      N3630   1.319       .  A
N3628     Mn3634   2.158       .  S
N3629      C3636   1.335       .  A
N3630      N3631   1.331       .  A
N3630     Mn3656   2.244       .  S
N3631      C3636   1.362       .  A
N3632      N3633   1.309       .  A
N3633      C3635   1.337       .  A
Mn3634    Cl3658   2.456       .  S
C3635      C3952   1.479       .  S
C3636      C3932   1.466       .  S
N3637      N3638   1.327       .  A
N3637      N3643   1.312       .  A
N3638      C3646   1.356       .  A
N3639      N3641   1.310       .  A
N3639      N3640   1.322       .  A
N3639     Mn3657   2.182       .  S
N3640      C3647   1.349       .  A
N3641      N3642   1.322       .  A
N3641     Mn3645   2.195       .  S
N3642      C3647   1.352       .  A
N3643      N3644   1.322       .  A
N3644      C3646   1.350       .  A
Mn3645    Cl3658   2.600       .  S
C3646      C3962   1.495       .  S
C3647      C3972   1.478       .  S
N3648      N3649   1.328       .  A
N3648      N3654   1.321       .  A
N3648     Mn3656   2.233       .  S
N3649      C3659   1.358       .  A
N3650      N3651   1.306       .  A
N3650      N3652   1.321       .  A
N3651      C3660   1.334       .  A
N3652      N3653   1.333       .  A
N3653      C3660   1.365       .  A
N3654      N3655   1.309       .  A
N3654     Mn3657   2.161       .  S
N3655      C3659   1.336       .  A
Mn3656    Cl3658   2.601       .  S
Mn3657    Cl3658   2.454       .  S
C3659      C3925   1.460       .  S
C3660      C3945   1.474       .  S
N3661      N3662   1.331       .  A
N3661      N3667   1.321       .  A
N3661     Mn3690   2.237       .  S
N3662      C3669   1.359       .  A
N3663      N3665   1.319       .  A
N3663      N3664   1.306       .  A
N3663     Mn3679   2.156       .  S
N3664      C3670   1.335       .  A
N3665      N3666   1.333       .  A
N3665     Mn3690   2.250       .  S
N3666      C3670   1.365       .  A
N3667      N3668   1.310       .  A
N3667     Mn3679   2.167       .  S
N3668      C3669   1.336       .  A
C3669      C4032   1.476       .  S
C3670      C3935   1.482       .  S
N3671      N3677   1.311       .  A
N3671      N3672   1.329       .  A
N3672      C3680   1.361       .  A
N3673      N3674   1.321       .  A
N3673      N3675   1.312       .  A
N3673     Mn3679   2.173       .  S
N3674      C3681   1.347       .  A
N3675      N3676   1.324       .  A
N3676      C3681   1.358       .  A
N3677      N3678   1.319       .  A
N3677     Mn3679   2.174       .  S
N3678      C3680   1.345       .  A
C3680      C3905   1.485       .  S
C3681      C3915   1.494       .  S
N3682      N3683   1.332       .  A
N3682      N3688   1.319       .  A
N3683      C3691   1.365       .  A
N3684      N3686   1.323       .  A
N3684      N3685   1.311       .  A
N3684     Mn3702   2.169       .  S
N3685      C3692   1.337       .  A
N3686      N3687   1.330       .  A
N3687      C3692   1.359       .  A
N3688      N3689   1.305       .  A
N3688     Mn3702   2.157       .  S
N3689      C3691   1.336       .  A
C3691      C3922   1.488       .  S
C3692      C4022   1.475       .  S
N3693      N3694   1.326       .  A
N3693      N3699   1.312       .  A
N3693     Mn3701   2.227   1_565  S
N3694      C3704   1.356       .  A
N3695      N3696   1.319       .  A
N3695      N3697   1.312       .  A
N3695     Mn3702   2.176       .  S
N3696      C3705   1.346       .  A
N3697      N3698   1.327       .  A
N3697     Mn3701   2.225   1_565  S
N3698      C3705   1.362       .  A
N3699      N3700   1.322       .  A
N3699     Mn3702   2.183       .  S
N3700      C3704   1.350       .  A
Mn3701    Cl3703   2.583       .  S
Mn3702    Cl3703   2.456   1_565  S
C3704      C3892   1.482       .  S
C3705      C3882   1.491       .  S
N3706      N3707   1.326       .  A
N3706      N3712   1.311       .  A
N3706     Mn3735   2.223       .  S
N3707      C3714   1.358       .  A
N3708      N3710   1.311       .  A
N3708      N3709   1.322       .  A
N3708     Mn3724   2.181       .  S
N3709      C3715   1.351       .  A
N3710      N3711   1.321       .  A
N3710     Mn3735   2.203       .  S
N3711      C3715   1.352       .  A
N3712      N3713   1.322       .  A
N3712     Mn3724   2.181       .  S
N3713      C3714   1.347       .  A
C3714      C3872   1.489       .  S
C3715      C3862   1.496       .  S
N3716      N3722   1.321       .  A
N3716      N3717   1.330       .  A
N3716     Mn3746   2.236       .  S
N3717      C3725   1.359       .  A
N3718      N3719   1.306       .  A
N3718      N3720   1.319       .  A
N3718     Mn3724   2.152       .  S
N3719      C3726   1.334       .  A
N3720      N3721   1.333       .  A
N3720     Mn3746   2.253       .  S
N3721      C3726   1.366       .  A
N3722      N3723   1.310       .  A
N3722     Mn3724   2.166       .  S
N3723      C3725   1.338       .  A
Mn3724    Cl3748   2.460       .  S
C3725      C3955   1.474       .  S
C3726      C4012   1.475       .  S
N3727      N3728   1.323       .  A
N3727      N3733   1.312       .  A
N3728      C3736   1.354       .  A
N3729      N3731   1.311       .  A
N3729      N3730   1.322       .  A
N3729     Mn3747   2.189       .  S
N3730      C3737   1.352       .  A
N3731      N3732   1.320       .  A
N3732      C3737   1.354       .  A
N3733      N3734   1.322       .  A
N3733     Mn3747   2.186       .  S
N3734      C3736   1.350       .  A
Mn3735    Cl3748   2.596       .  S
C3736      C3842   1.479       .  S
C3737      C3852   1.496       .  S
N3738      N3739   1.330       .  A
N3738      N3744   1.322       .  A
N3739      C3749   1.361       .  A
N3740      N3741   1.308       .  A
N3740      N3742   1.321       .  A
N3740     Mn3747   2.168       .  S
N3741      C3750   1.339       .  A
N3742      N3743   1.330       .  A
N3743      C3750   1.360       .  A
N3744      N3745   1.309       .  A
N3744     Mn3747   2.154       .  S
N3745      C3749   1.334       .  A
Mn3746    Cl3748   2.603       .  S
C3749      C4005   1.466       .  S
C3750      C3942   1.467       .  S
N3751      N3752   1.328       .  A
N3751      N3757   1.320       .  A
N3752      C3759   1.361       .  A
N3753      N3755   1.317       .  A
N3753      N3754   1.305       .  A
N3754      C3760   1.336       .  A
N3755      N3756   1.337       .  A
N3755     Mn3780   2.273       .  S
N3756      C3760   1.371       .  A
N3757      N3758   1.311       .  A
N3757     Mn3769   2.179       .  S
N3758      C3759   1.341       .  A
C3759      C4075   1.467       .  S
C3760      C3992   1.493       .  S
N3761      N3767   1.314       .  A
N3761      N3762   1.323       .  A
N3762      C3770   1.353       .  A
N3763      N3764   1.322       .  A
N3763      N3765   1.308       .  A
N3763     Mn3769   2.168       .  S
N3764      C3771   1.351       .  A
N3765      N3766   1.319       .  A
N3765     Mn3791   2.205       .  S
N3766      C3771   1.355       .  A
N3767      N3768   1.324       .  A
N3768      C3770   1.350       .  A
Mn3769    Cl3793   2.473       .  S
C3770      C3902   1.486       .  S
C3771      C3912   1.494       .  S
N3772      N3773   1.327       .  A
N3772      N3778   1.322       .  A
N3772     Mn3780   2.233       .  S
N3773      C3781   1.358       .  A
N3774      N3776   1.317       .  A
N3774      N3775   1.305       .  A
N3774     Mn3792   2.147       .  S
N3775      C3782   1.336       .  A
N3776      N3777   1.336       .  A
N3777      C3782   1.370       .  A
N3778      N3779   1.314       .  A
N3779      C3781   1.344       .  A
C3781      C3982   1.471       .  S
C3782      C4065   1.491       .  S
N3783      N3784   1.325       .  A
N3783      N3789   1.314       .  A
N3783     Mn3791   2.213       .  S
N3784      C3794   1.355       .  A
N3785      N3786   1.320       .  A
N3785      N3787   1.309       .  A
N3786      C3795   1.352       .  A
N3787      N3788   1.322       .  A
N3788      C3795   1.356       .  A
N3789      N3790   1.324       .  A
N3789     Mn3792   2.212       .  S
N3790      C3794   1.353       .  A
Mn3791    Cl3793   2.574       .  S
Mn3792    Cl3793   2.470       .  S
C3794      C3875   1.490       .  S
C3795      C3865   1.491       .  S
N3796      N3797   1.323       .  A
N3796      N3802   1.313       .  A
N3797      C3804   1.353       .  A
N3798      N3800   1.311       .  A
N3798      N3799   1.325       .  A
N3798     Mn3814   2.195       .  S
N3799      C3805   1.354       .  A
N3800      N3801   1.320       .  A
N3800     Mn3825   2.202       .  S
N3801      C3805   1.353       .  A
N3802      N3803   1.324       .  A
N3803      C3804   1.351       .  A
C3804      C3895   1.483       .  S
C3805      C3885   1.495       .  S
N3806      N3812   1.320       .  A
N3806      N3807   1.330       .  A
N3806     Mn3836   2.252       .  S
N3807      C3815   1.363       .  A
N3808      N3809   1.311       .  A
N3808      N3810   1.320       .  A
N3809      C3816   1.341       .  A
N3810      N3811   1.332       .  A
N3811      C3816   1.364       .  A
N3812      N3813   1.311       .  A
N3812     Mn3814   2.173       .  S
N3813      C3815   1.340       .  A
Mn3814    Cl3838   2.471       .  S
C3815      C3975   1.473       .  S
C3816      C4055   1.483       .  S
N3817      N3818   1.324       .  A
N3817      N3823   1.313       .  A
N3817     Mn3825   2.215       .  S
N3818      C3826   1.354       .  A
N3819      N3821   1.310       .  A
N3819      N3820   1.321       .  A
N3820      C3827   1.349       .  A
N3821      N3822   1.324       .  A
N3822      C3827   1.359       .  A
N3823      N3824   1.322       .  A
N3823     Mn3837   2.192       .  S
N3824      C3826   1.351       .  A
Mn3825    Cl3838   2.591       .  S
C3826      C3845   1.478       .  S
C3827      C3855   1.498       .  S
N3828      N3829   1.333       .  A
N3828      N3834   1.318       .  A
N3829      C3839   1.367       .  A
N3830      N3831   1.316       .  A
N3830      N3832   1.320       .  A
N3830     Mn3837   2.203       .  S
N3831      C3840   1.345       .  A
N3832      N3833   1.328       .  A
N3832     Mn3836   2.237       .  S
N3833      C3840   1.361       .  A
N3834      N3835   1.308       .  A
N3835      C3839   1.334       .  A
Mn3836    Cl3838   2.605       .  S
Mn3837    Cl3838   2.467       .  S
C3839      C4045   1.485       .  S
C3840      C3965   1.481       .  S
C3841      C3842   1.401       .  A
C3841      C3846   1.403       .  A
C3841      H3848   1.083       .  S
C3842      C3843   1.412       .  A
C3843      C3844   1.404       .  A
C3843     Br3850   1.919       .  S
C3844      C3845   1.401       .  A
C3844      H3849   1.083       .  S
C3845      C3846   1.411       .  A
C3846     Br3847   1.917       .  S
C3851      C3852   1.407       .  A
C3851      C3856   1.406       .  A
C3851      H3858   1.082       .  S
C3852      C3853   1.412       .  A
C3853      C3854   1.398       .  A
C3853     Br3860   1.908       .  S
C3854      C3855   1.399       .  A
C3854      H3859   1.073       .  S
C3855      C3856   1.419       .  A
C3856     Br3857   1.920       .  S
C3861      C3862   1.407       .  A
C3861      C3866   1.403       .  A
C3861      H3868   1.083       .  S
C3862      C3863   1.414       .  A
C3863      C3864   1.397       .  A
C3863     Br3870   1.909       .  S
C3864      C3865   1.402       .  A
C3864      H3869   1.082       .  S
C3865      C3866   1.415       .  A
C3866     Br3867   1.920       .  S
C3871      C3872   1.406       .  A
C3871      C3876   1.408       .  A
C3871      H3878   1.083       .  S
C3872      C3873   1.403       .  A
C3873      C3874   1.406       .  A
C3873     Br3880   1.908       .  S
C3874      C3875   1.407       .  A
C3874      H3879   1.083       .  S
C3875      C3876   1.412       .  A
C3876     Br3877   1.918       .  S
C3881      C3882   1.398       .  A
C3881      C3886   1.398       .  A
C3881      H3888   1.081       .  S
C3882      C3883   1.417       .  A
C3883      C3884   1.408       .  A
C3883     Br3890   1.919       .  S
C3884      C3885   1.407       .  A
C3884      H3889   1.083       .  S
C3885      C3886   1.409       .  A
C3886     Br3887   1.897   1_565  S
C3891      C3892   1.406       .  A
C3891      C3896   1.405       .  A
C3891      H3898   1.084       .  S
C3892      C3893   1.407       .  A
C3893      C3894   1.405       .  A
C3893     Br3900   1.916       .  S
C3894      C3895   1.406       .  A
C3894      H3899   1.084       .  S
C3895      C3896   1.408       .  A
C3896     Br3897   1.918       .  S
C3901      C3902   1.408       .  A
C3901      C3906   1.407       .  A
C3901      H3908   1.083       .  S
C3902      C3903   1.408       .  A
C3903      C3904   1.404       .  A
C3903     Br3910   1.918       .  S
C3904      C3905   1.406       .  A
C3904      H3909   1.084       .  S
C3905      C3906   1.405       .  A
C3906     Br3907   1.914       .  S
C3911      C3912   1.408       .  A
C3911      C3916   1.406       .  A
C3911      H3918   1.083       .  S
C3912      C3913   1.409       .  A
C3913      C3914   1.397       .  A
C3913     Br3920   1.905       .  S
C3914      C3915   1.400       .  A
C3914      H3919   1.078       .  S
C3915      C3916   1.416       .  A
C3916     Br3917   1.920       .  S
C3921      C3922   1.416       .  A
C3921      C3926   1.390       .  A
C3921      H3928   1.083       .  S
C3922      C3923   1.411       .  A
C3923      C3924   1.404       .  A
C3923     Br3930   1.918       .  S
C3924      C3925   1.409       .  A
C3924      H3929   1.083       .  S
C3925      C3926   1.393       .  A
C3926     Br3927   1.919       .  S
C3931      C3932   1.408       .  A
C3931      C3936   1.409       .  A
C3931      H3938   1.084       .  S
C3932      C3933   1.401       .  A
C3933      C3934   1.391       .  A
C3933     Br3940   1.920       .  S
C3934      C3935   1.408       .  A
C3934      H3939   1.084       .  S
C3935      C3936   1.413       .  A
C3936     Br3937   1.917       .  S
C3941      C3942   1.407       .  A
C3941      C3946   1.410       .  A
C3941      H3948   1.083       .  S
C3942      C3943   1.402       .  A
C3943      C3944   1.387       .  A
C3943     Br3950   1.923       .  S
C3944      C3945   1.403       .  A
C3944      H3949   1.078       .  S
C3945      C3946   1.411       .  A
C3946     Br3947   1.917       .  S
C3951      C3952   1.415       .  A
C3951      C3956   1.398       .  A
C3951      H3958   1.084       .  S
C3952      C3953   1.401       .  A
C3953      C3954   1.399       .  A
C3953     Br3960   1.916       .  S
C3954      C3955   1.413       .  A
C3954      H3959   1.084       .  S
C3955      C3956   1.399       .  A
C3956     Br3957   1.917       .  S
C3961      C3962   1.402       .  A
C3961      C3966   1.403       .  A
C3961      H3968   1.081       .  S
C3962      C3963   1.417       .  A
C3963      C3964   1.405       .  A
C3963     Br3970   1.910       .  S
C3964      C3965   1.398       .  A
C3964      H3969   1.083       .  S
C3965      C3966   1.406       .  A
C3966     Br3967   1.899       .  S
C3971      C3972   1.408       .  A
C3971      C3976   1.406       .  A
C3971      H3978   1.083       .  S
C3972      C3973   1.403       .  A
C3973      C3974   1.397       .  A
C3973     Br3980   1.915       .  S
C3974      C3975   1.407       .  A
C3974      H3979   1.084       .  S
C3975      C3976   1.406       .  A
C3976     Br3977   1.916       .  S
C3981      C3982   1.404       .  A
C3981      C3986   1.404       .  A
C3981      H3988   1.084       .  S
C3982      C3983   1.404       .  A
C3983      C3984   1.398       .  A
C3983     Br3990   1.918       .  S
C3984      C3985   1.409       .  A
C3984      H3989   1.083       .  S
C3985      C3986   1.414       .  A
C3986     Br3987   1.913       .  S
C3991      C3992   1.406       .  A
C3991      C3996   1.395       .  A
C3991      H3998   1.085       .  S
C3992      C3993   1.408       .  A
C3993      C3994   1.415       .  A
C3993     Br4000   1.908       .  S
C3994      C3995   1.414       .  A
C3994      H3999   1.083       .  S
C3995      C3996   1.415       .  A
C3996     Br3997   1.926       .  S
C4001      C4002   1.399       .  A
C4001      C4006   1.401       .  A
C4001      H4008   1.083       .  S
C4002      C4003   1.433       .  A
C4003      C4004   1.394       .  A
C4003     Br4010   1.930       .  S
C4004      C4005   1.387       .  A
C4004      H4009   1.084       .  S
C4005      C4006   1.416       .  A
C4006     Br4007   1.915       .  S
C4011      C4012   1.406       .  A
C4011      C4016   1.391       .  A
C4011      H4018   1.085       .  S
C4012      C4013   1.412       .  A
C4013      C4014   1.409       .  A
C4013     Br4020   1.917       .  S
C4014      C4015   1.408       .  A
C4014      H4019   1.084       .  S
C4015      C4016   1.401       .  A
C4016     Br4017   1.919       .  S
C4021      C4022   1.393       .  A
C4021      C4026   1.398       .  A
C4021      H4028   1.084       .  S
C4022      C4023   1.420       .  A
C4023      C4024   1.398       .  A
C4023     Br4030   1.921       .  S
C4024      C4025   1.394       .  A
C4024      H4029   1.084       .  S
C4025      C4026   1.421       .  A
C4026     Br4027   1.921       .  S
C4031      C4032   1.393       .  A
C4031      C4036   1.398       .  A
C4031      H4038   1.084       .  S
C4032      C4033   1.421       .  A
C4033      C4034   1.398       .  A
C4033     Br4040   1.921       .  S
C4034      C4035   1.393       .  A
C4034      H4039   1.084       .  S
C4035      C4036   1.422       .  A
C4036     Br4037   1.922       .  S
C4041      C4042   1.387       .  A
C4041      C4046   1.389       .  A
C4041      H4048   1.084       .  S
C4042      C4043   1.413       .  A
C4043      C4044   1.409       .  A
C4043     Br4050   1.918       .  S
C4044      C4045   1.403       .  A
C4044      H4049   1.083       .  S
C4045      C4046   1.427       .  A
C4046     Br4047   1.927       .  S
C4051      C4052   1.410       .  A
C4051      C4056   1.409       .  A
C4051      H4058   1.081       .  S
C4052      C4053   1.422       .  A
C4053      C4054   1.398       .  A
C4053     Br4060   1.924       .  S
C4054      C4055   1.400       .  A
C4054      H4059   1.084       .  S
C4055      C4056   1.408       .  A
C4056     Br4057   1.910       .  S
C4061      C4062   1.411       .  A
C4061      C4066   1.413       .  A
C4061      H4068   1.082       .  S
C4062      C4063   1.413       .  A
C4063      C4064   1.393       .  A
C4063     Br4070   1.926       .  S
C4064      C4065   1.406       .  A
C4064      H4069   1.085       .  S
C4065      C4066   1.407       .  A
C4066     Br4067   1.906       .  S
C4071      C4072   1.407       .  A
C4071      C4076   1.401       .  A
C4071      H4078   1.083       .  S
C4072      C4073   1.413       .  A
C4073      C4074   1.399       .  A
C4073     Br4080   1.917       .  S
C4074      C4075   1.402       .  A
C4074      H4079   1.084       .  S
C4075      C4076   1.404       .  A
C4076     Br4077   1.916       .  S
